14
name:0,n_samples:50,mol_size:14,random_seed:9323,imol:0
C 2.942362785 -3.703528881 -21.628198624
O 6.223673344 0.936906457 -22.047739029
C 5.027521610 -0.897480309 -21.097431183
N 4.487018585 -5.276282787 -18.678155899
C 5.414682388 -0.368578196 -19.745403290
C 5.489101410 -0.729629815 -23.562492371
C 3.748519897 -5.041438580 -19.644737244
O 5.602234840 -3.111174583 -19.409374237
C 3.380107164 -2.457536221 -22.060575485
C 3.743989468 -4.013525009 -20.518060684
C 5.609653473 -0.219145536 -22.201436996
C 4.397627831 -2.053647041 -21.203615189
N 6.055040836 0.333409190 -24.357803345
C 4.683140278 -3.066718578 -20.291980743
14
name:0,n_samples:50,mol_size:14,random_seed:9323,imol:1
C 4.879621983 -1.084865570 -22.625175476
C 4.296374321 -3.137590408 -19.533824921
N 2.321169615 -3.735676765 -21.823257446
C 5.093685150 -1.328548789 -21.208227158
C 5.238262653 -2.786211729 -18.526998520
C 2.231707335 -4.380917072 -20.572641373
C 4.237367153 -2.397912025 -20.890077591
C 3.405344725 -2.819843531 -21.978179932
C 6.195327282 -1.543931484 -19.020811081
C 5.997936726 -0.680202425 -20.161638260
O 6.542160511 0.481368780 -20.294305801
C 5.568673611 -3.251667500 -17.207139969
N 3.879850864 -1.963810205 -23.122957230
C 3.121368647 -4.253386974 -19.445520401
14
name:0,n_samples:50,mol_size:14,random_seed:9323,imol:2
C 3.408789635 -4.231524467 -21.860054016
C 4.461619854 -3.477262497 -19.151916504
C 5.618606091 -0.198327780 -20.254995346
C 4.676112175 1.894580245 -22.195816040
C 4.169396400 -2.834747314 -21.672151566
C 4.618798733 -2.598196745 -20.235919952
O 5.187616825 -1.463265777 -18.314899445
O 6.948286533 1.302799582 -22.700590134
O 5.849463940 -0.192776501 -21.751428604
C 5.905082703 1.025317550 -22.253480911
N 1.950011015 -4.139417648 -21.786802292
C 5.165920258 -1.373210430 -19.667156219
C 4.862613201 -2.793949604 -17.962213516
O 5.769452095 0.821031570 -19.521142960
14
name:0,n_samples:50,mol_size:14,random_seed:9323,imol:3
C 3.686887503 -1.682757139 -21.925811768
C 3.217574120 -1.683315396 -23.261123657
C 2.145033836 -2.532450676 -23.614511490
C 5.857844830 1.640981555 -20.431081772
C 2.106816769 -3.524525166 -21.353855133
C 4.592213154 -0.677942216 -21.370212555
C 3.160689831 -2.739408016 -21.025110245
C 1.599678516 -3.468561649 -22.732685089
F 6.324000359 2.178444386 -22.817775726
C 5.244967937 0.713849187 -19.495317459
C 5.381608963 0.160907030 -22.288146973
C 5.893683910 1.311289668 -21.776247025
O 1.631463289 -4.242723465 -20.412038803
C 4.587579250 -0.453693449 -19.992404938
14
name:0,n_samples:50,mol_size:14,random_seed:9323,imol:4
O 5.083629131 2.200169086 -23.417575836
C 4.048342228 -0.091679454 -21.327959061
C 4.305574894 -1.522533894 -21.421869278
O 2.994630098 -5.101010799 -18.459684372
O -0.327055931 -4.764103889 -21.931390762
C 2.430701256 -4.909529209 -19.343677521
C 1.582728386 -4.666040421 -20.404459000
C 0.964300156 -4.416487694 -21.641357422
C 3.117846251 -3.356398106 -22.554349899
C 1.672213554 -3.758052826 -22.828601837
C 5.004533291 1.623731732 -22.475381851
O 4.940966606 0.976215959 -21.348892212
C 3.278312445 -2.583307266 -21.174346924
C 3.643803358 -0.769511938 -22.530767441
14
name:0,n_samples:50,mol_size:14,random_seed:9323,imol:5
C 5.862486362 -0.999201536 -21.725252151
C 5.821569920 -1.557984829 -20.485076904
N 1.177910328 -5.247959137 -20.903638840
C 6.464167118 -1.249644995 -18.123949051
C 5.150664330 -2.730397701 -20.390554428
C 4.199468136 -3.300792694 -21.112308502
O 5.723984718 -0.672341108 -22.640209198
C 2.303269863 -4.490776062 -21.283733368
C 2.613395929 -3.931532383 -22.522588730
C 5.677396774 -2.337737560 -17.439022064
N 6.374458313 -0.913995385 -19.466285706
O 7.225927353 -0.614469111 -17.425849915
C 3.354804993 -4.129712582 -20.419349670
N 3.785556316 -3.231495857 -22.401359558
14
name:0,n_samples:50,mol_size:14,random_seed:9323,imol:6
N 3.159065247 -4.099408150 -20.777965546
C 5.929317951 1.562702775 -22.427707672
C 4.230956078 -0.406274080 -23.433597565
C 5.248018742 0.614919305 -23.498319626
C 6.305783272 -1.439393640 -19.055730820
C 4.253487587 -3.274269104 -20.530195236
C 6.085862160 -2.825784206 -18.631048203
C 2.421456099 -3.650679588 -21.797676086
C 3.997472048 -2.322127819 -21.760038376
C 2.750822306 -2.559489250 -22.538307190
N 5.002824783 -3.615041256 -19.278100967
N 5.877108574 -1.158943772 -20.581491470
C 3.647279263 -1.616933823 -22.871799469
C 4.799298763 -2.093857288 -21.027233124
14
name:0,n_samples:50,mol_size:14,random_seed:9323,imol:7
C 3.033403635 -3.207726955 -21.546108246
C 4.669237137 -0.877565503 -21.989305496
C 5.057094574 -3.959057331 -19.983541489
C 2.124305248 -4.896844387 -19.824440002
C 4.259727955 -2.975074768 -20.788787842
O 5.736392975 -3.335885048 -18.831924438
C 5.872318745 0.850642562 -23.506982803
C 2.906420469 -2.390573263 -22.783988953
O 0.771489143 -4.119816780 -21.560804367
S 5.728488922 1.474352241 -20.718404770
C 5.530465603 0.320980430 -22.121650696
N 3.855213165 -1.272396326 -22.998434067
C 1.944500923 -4.041596413 -21.067142487
N 4.847975731 -1.731713057 -20.926761627
14
name:0,n_samples:50,mol_size:14,random_seed:9323,imol:8
O 3.491207838 -2.797826767 -23.199966431
C 3.636645317 -3.143731117 -21.976348877
C 3.590825319 -5.283246040 -18.890592575
C 5.892081738 1.345672727 -21.340822220
C 5.217261314 -0.528368413 -19.957839966
C 4.825365067 -1.127424240 -21.157262802
C 4.880938530 -0.512620807 -22.448652267
C 5.436652660 0.732740879 -22.533544540
C 3.757727623 -4.276953697 -20.001869202
O 4.528407097 -3.108830929 -19.817377090
C 4.348563194 -2.438268900 -21.093059540
C 3.196210384 -4.319568157 -21.303350449
O 6.329480171 2.614667892 -21.406198502
C 5.815947533 0.730307937 -20.052900314
14
name:0,n_samples:50,mol_size:14,random_seed:9323,imol:9
O 7.164803028 0.921753526 -20.777336121
C 5.531929493 -0.747485220 -20.955923080
C 5.871666431 0.069042563 -24.568931580
C 5.650032520 -1.005798936 -18.010139465
C 4.114691257 -1.748602152 -23.764535904
C 6.992760181 0.880151868 -24.634019852
O 6.850372314 0.484841108 -19.433794022
C 4.504696369 -1.793861389 -21.240129471
C 6.474671841 0.085955024 -21.652774811
C 2.494588852 -3.147925854 -22.452688217
C 3.764810801 -2.232561111 -22.498939514
Cl 3.940790653 -2.531803608 -19.770240784
C 4.909583569 -0.723113775 -24.251337051
C 5.918011665 -0.450217366 -19.443798065
14
name:0,n_samples:50,mol_size:14,random_seed:9323,imol:10
O 4.926170826 -2.740800858 -19.289108276
O 7.046982765 0.770429611 -21.445892334
C 4.984554291 -1.452709317 -21.266809464
C 4.037560463 -3.343163013 -20.190052032
C 2.269797325 -4.114297867 -21.277692795
C 2.732268333 -3.175809383 -23.641452789
C 5.846621513 -1.899160624 -20.080310822
C 4.114672661 -2.698803186 -21.464782715
C 6.801681519 -0.099356771 -22.536605835
C 2.928607225 -4.207623959 -20.038743973
O 6.793148994 -2.798927069 -20.657449722
N 3.404383183 -2.042035818 -24.268083572
C 3.028743267 -3.273897171 -22.165983200
C 5.416849613 -0.715231061 -22.522018433
14
name:0,n_samples:50,mol_size:14,random_seed:9323,imol:11
C 5.982305050 1.743531823 -24.058246613
C 5.608819485 1.535738349 -21.548580170
C 4.987763405 2.034801960 -22.892221451
N 0.536599636 -4.388290882 -21.482141495
C 5.099045753 -0.604312181 -20.364381790
C 0.787621975 -4.865220547 -20.218330383
S 5.742549419 -3.358830929 -17.947391510
C 5.132647038 -2.743561268 -19.155529022
C 4.595582008 -2.052459478 -20.066850662
O 5.287347794 0.137296438 -21.507516861
N 2.029875755 -4.415988922 -19.840129852
C 2.460251570 -3.518659592 -20.816623688
C 3.455871105 -2.635140181 -20.680461884
C 1.593916655 -3.610116005 -21.921394348
14
name:0,n_samples:50,mol_size:14,random_seed:9323,imol:12
C 2.854231119 -3.852005005 -22.823410034
C 5.638738155 0.395064473 -22.683404922
C 5.907336712 0.951153159 -23.953884125
N 5.284875393 -0.746259451 -22.150299072
C 2.433779240 -4.953813076 -21.833368301
C 4.529227734 -1.740053296 -20.036239624
C 3.470895767 -2.391986370 -20.801240921
C 5.883219242 1.298359275 -21.614351273
C 3.871037245 -3.035154819 -22.171195984
C 6.137322426 2.303545475 -23.688568115
C 5.793467045 0.616878152 -20.362213135
C 5.289852142 -0.665880501 -20.832973480
O 6.065302849 2.555520058 -22.286966324
C 1.372295380 -4.749406815 -20.773406982
14
name:0,n_samples:50,mol_size:14,random_seed:9323,imol:13
N 5.434249878 -0.625172734 -20.141559601
N 2.871297121 -3.487677097 -24.103832245
C 1.573467970 -4.157241821 -23.810007095
C 4.250408649 -2.198523998 -21.755052567
C 5.393872738 -1.190466762 -18.749717712
O 6.324741840 1.251621842 -19.592990875
C 2.760245323 -2.125410318 -22.086456299
O 1.984982491 -2.289829493 -21.048093796
C 4.994065762 -1.434901476 -21.205602646
C 5.788016796 0.699796081 -20.433261871
O 4.936183453 -1.220009565 -22.293390274
C 2.716112852 -2.074837685 -23.623830795
C 0.495950222 -3.470300674 -24.679164886
C 5.542739391 1.416564107 -21.746810913
14
name:0,n_samples:50,mol_size:14,random_seed:9323,imol:14
N 4.970433712 -0.130122781 -20.849695206
C 4.306801796 -1.310322046 -21.086593628
C 2.209958553 -2.830759525 -23.876987457
C 2.634607315 -3.608022213 -21.486379623
N 1.613476515 -4.539530277 -21.578701019
C 4.911555290 0.391003251 -23.181240082
C 4.076382637 -0.784608543 -23.518293381
C 3.341324091 -3.427851677 -20.305049896
C 5.303540707 0.686523080 -21.840757370
C 2.902093649 -2.773112297 -22.533979416
C 2.890973568 -1.953935623 -24.753763199
C 4.136514664 -2.261223555 -20.106992722
O 6.086818218 1.789810777 -21.507513046
C 3.777774334 -1.586946964 -22.369417191
14
name:0,n_samples:50,mol_size:14,random_seed:9323,imol:15
C 5.545187473 -3.108975172 -18.258155823
C 6.004538059 -0.100614548 -20.154069901
C 1.353016376 -4.712493420 -22.912504196
C 5.455511570 -0.435601652 -22.490348816
C 3.124315023 -4.296927929 -21.253883362
C 4.797169209 -1.617701650 -22.180610657
C 2.616202116 -3.870956898 -22.617151260
N 5.833217144 -1.934062481 -18.646669388
C 5.535135746 -1.384122133 -19.895446777
N 5.649548054 -0.004223466 -23.838720322
C 4.789775372 -2.175290108 -20.842847824
C 4.146584034 -3.435826302 -20.507921219
C 5.942944527 0.346070290 -21.452129364
S 4.447351456 -4.172335148 -18.921289444
14
name:0,n_samples:50,mol_size:14,random_seed:9323,imol:16
C 1.731449842 -4.773848534 -23.239904404
C 2.839123249 -3.441425800 -21.408842087
C 6.034139633 -0.177186608 -20.755947113
C 1.552989483 -3.942666054 -22.000308990
C 3.504875422 -2.497898340 -22.283880234
C 6.170188427 -0.787843108 -19.501827240
C 3.390488625 -3.419991970 -20.125064850
C 5.342169762 -1.897262335 -19.172945023
N 4.906137943 0.117454171 -22.945858002
O 5.419786453 -2.476604462 -17.951135635
C 5.132763863 -0.568073511 -21.787736893
N 3.275458813 -2.139807701 -23.580852509
C 4.390040874 -1.776065946 -21.434242249
C 4.385692596 -2.385257006 -20.116443634
14
name:0,n_samples:50,mol_size:14,random_seed:9323,imol:17
C 2.324118614 -2.509864569 -21.550361633
C 5.727894306 -0.333843410 -19.440570831
N 0.651470184 -4.461331844 -21.679327011
O 6.489370346 0.400836349 -18.598480225
C 5.132043839 -0.115406513 -20.879693985
C 3.240403175 -1.559909582 -21.945312500
O 5.870631695 1.223436236 -22.773443222
C 4.456265926 -1.346082211 -21.120527267
C 5.722946167 1.040634036 -21.455501556
O 6.016313553 -1.720199585 -19.387269974
O 6.202935696 2.090604305 -20.709682465
O 4.727151394 -3.470376015 -19.875591278
C 1.426206112 -3.459740162 -21.624965668
C 5.008140564 -2.306107283 -20.143569946
14
name:0,n_samples:50,mol_size:14,random_seed:9323,imol:18
O 3.194726706 -2.567284107 -24.365375519
C 4.464394569 -1.372488260 -22.218894958
C 4.272076130 -2.117384195 -20.066825867
C 1.346801281 -4.494187832 -22.031383514
C 5.420203209 1.236154914 -21.629468918
C 3.600521803 -2.484474421 -22.172546387
F 1.326270103 -4.412971020 -24.374519348
N 3.576920509 -2.942607880 -20.895189285
C 4.800152779 -1.079197049 -20.858192444
C 0.934817791 -5.016619205 -20.928569794
C 1.842131615 -3.947891712 -23.193252563
C 4.873897552 0.361040711 -20.474180222
C 5.702023029 0.656817794 -19.188846588
C 2.895870924 -2.956877232 -23.254039764
14
name:0,n_samples:50,mol_size:14,random_seed:9323,imol:19
C 4.772703171 -2.501214504 -19.936590195
C 2.992281914 -2.757060051 -23.922365189
C 5.263422012 -2.665789127 -18.528957367
C 5.396564484 -0.939774871 -23.101203918
Cl 1.705354929 -4.661696911 -21.864288330
C 4.720790863 -1.840394735 -22.215713501
C 6.047187328 -0.440972269 -20.944051743
C 5.223424911 -1.568325758 -20.896606445
C 3.575484276 -2.745083094 -22.553958893
C 6.813153267 0.513079643 -19.887971878
C 3.097778320 -3.571903229 -21.497724533
C 6.192408562 -0.068604231 -22.327869415
C 6.408962250 -1.815871835 -18.046371460
C 3.696008205 -3.506012917 -20.227869034
14
name:0,n_samples:50,mol_size:14,random_seed:9323,imol:20
C 5.388391972 -3.068215847 -19.264083862
N 3.549783707 -3.800581932 -22.517728806
C 2.205743551 -3.250133991 -22.295154572
C 5.808193684 -0.831502318 -20.759614944
C 2.906260490 -2.072092772 -24.693500519
C 1.416119099 -2.380985022 -24.496246338
C 6.075051308 0.351872087 -21.759979248
N 1.177910805 -3.432645321 -23.387548447
C 6.231521130 -0.797318101 -19.486598969
O 6.763792038 0.363371253 -19.002298355
C 4.836937904 -3.005287886 -20.511455536
N 5.112730980 -1.825745106 -21.173902512
C 4.205462933 -4.139048576 -21.219869614
C 6.071343899 -2.043845177 -18.709930420
14
name:0,n_samples:50,mol_size:14,random_seed:9323,imol:21
C 2.184033155 -3.141885281 -22.493886948
O 5.993022919 0.699804902 -22.638212204
C 4.659671307 -1.836482048 -22.507522583
C 5.780285358 -1.078744173 -18.670244217
C 1.547894001 -3.737782001 -21.192930222
C 4.223150730 -2.688018799 -19.788703918
C 5.512838364 -1.352159858 -21.378557205
C 6.287164688 -0.085532784 -21.659563065
C 6.617819786 -3.057322264 -19.833276749
C 3.959198475 -3.707912922 -20.891160965
C 3.653427362 -2.921964645 -22.172100067
C 5.560168743 -2.036670923 -19.978023529
O 7.137740135 -0.633851707 -18.582208633
C 2.694057941 -4.534219265 -20.564140320
14
name:0,n_samples:50,mol_size:14,random_seed:9323,imol:22
C 2.981627941 -4.185141087 -23.232948303
C 1.925920963 -5.066907406 -21.209793091
C 4.588129997 -2.691311359 -22.109794617
N 0.521814346 -4.936807156 -20.674461365
O 6.357656002 -0.293582678 -21.627407074
N 4.373251915 -1.653940320 -21.025424957
C 3.709630966 -3.851053238 -21.913597107
C 1.951425552 -5.191301346 -22.727724075
O 6.565743446 -2.211855888 -20.043947220
S 5.838801384 -0.969636917 -20.518228531
O 3.936303139 -4.753964424 -24.149848938
C 2.247530937 -2.994596243 -23.895162582
O 2.716373920 -3.845476151 -20.876832962
O 5.540051937 -0.088424683 -19.396497726
14
name:0,n_samples:50,mol_size:14,random_seed:9323,imol:23
C 2.377213001 -4.323865891 -19.987840652
C 1.959776640 -3.544521809 -22.388343811
C 4.714659214 -1.096910477 -20.994207382
C 4.626556396 -0.535703003 -22.258934021
C 6.085173607 -0.813746095 -18.765916824
C 3.681631565 -4.102784157 -18.939178467
C 5.320359230 0.658670306 -22.884710312
C 5.616826057 -0.367089033 -20.161556244
C 4.570001602 -3.225575924 -19.587169647
O 6.219156265 -1.575536966 -17.987016678
C 6.210011959 0.897789121 -20.542201996
C 6.096991539 1.448334098 -21.835781097
C 2.688923359 -3.417028904 -21.059928894
C 3.920036316 -2.448386669 -20.779327393
14
name:0,n_samples:50,mol_size:14,random_seed:9323,imol:24
C 5.510052681 -2.671982765 -18.863330841
C 3.002960920 -2.263128281 -20.819328308
C 5.096783161 -1.345920324 -19.582069397
C 2.327326298 -2.413031101 -22.035251617
C 4.070178032 -1.369793892 -20.697328568
O 6.308209419 -2.524067402 -17.891008377
C 4.550930977 -0.371081173 -24.109348297
C 2.751672029 -1.684044123 -23.131153107
C 4.345421791 -0.508519888 -21.709388733
C 5.359705925 0.781227231 -24.547405243
N 6.030265808 1.443773627 -23.635372162
C 3.835717201 -0.829678953 -22.948717117
C 6.451444626 1.278729796 -22.285070419
O 5.075899124 -3.747986317 -19.219175339
14
name:0,n_samples:50,mol_size:14,random_seed:9323,imol:25
C 7.235276222 -0.689577878 -19.377096176
C 6.730195999 -0.986117005 -23.359983444
C 2.406249762 -2.738366604 -21.522558212
C 4.824057579 -3.058964729 -20.951602936
C 1.953092098 -4.193269730 -21.559585571
C 5.744526386 -0.438975990 -19.707458496
C 1.093476295 -4.464922905 -20.314338684
C 5.360217094 -2.049100637 -21.723194122
C 5.397064209 -0.637188494 -21.202468872
C 3.462189436 -2.624818325 -20.441335678
C 5.694707870 -2.141144276 -23.208446503
N -0.303036690 -4.711527348 -20.629232407
C 6.407003403 -0.021849155 -22.168153763
C 8.004754066 -1.653860927 -20.217550278
14
name:0,n_samples:50,mol_size:14,random_seed:9323,imol:26
O 3.309672117 0.592722654 -22.054580688
C 5.951747417 -0.791997790 -18.337150574
C 4.518361092 -2.121409178 -20.018526077
C 5.494328499 1.463886857 -20.854618073
C 4.837572098 -0.438983440 -23.940954208
N 4.599397182 -3.432579517 -19.507244110
C 4.441656113 0.792093515 -23.043069839
S 2.094018936 -4.480495930 -22.131530762
C 2.704493523 -3.351780891 -20.941341400
C 5.199304104 -0.913962483 -19.680547714
C 5.395574570 1.616804719 -22.475458145
C 5.633878231 0.031786680 -20.640106201
C 3.614566326 -2.300432205 -21.335948944
C 3.543754101 -4.328941822 -19.937923431
14
name:0,n_samples:50,mol_size:14,random_seed:9323,imol:27
C 4.796329498 -0.746597171 -22.358543396
O 1.336654663 -4.604467392 -20.627019882
C 5.185635567 -0.407714784 -20.031539917
C 4.427623272 -1.270577908 -23.766506195
C 4.622124672 -1.434697032 -21.024023056
C 2.447119951 -2.692212343 -21.746665955
C 3.681710720 -2.545465708 -20.799245834
C 1.327933788 -3.649344444 -21.516521454
O 3.790835381 -3.599454403 -19.885225296
C 5.378821850 0.522087455 -22.144641876
O 0.399070263 -3.399758339 -22.394601822
C 5.464867115 0.748162150 -20.714508057
O 5.835650444 -0.204893589 -18.950307846
O 5.855518341 1.365599275 -23.063692093
14
name:0,n_samples:50,mol_size:14,random_seed:9323,imol:28
C -0.334540367 -4.927167416 -21.074846268
C 5.682044506 0.036848664 -21.617279053
C 4.648822308 -0.770277143 -21.993370056
C 2.999012232 -2.670681953 -21.694049835
S 5.397748947 0.155309558 -24.264762878
O 6.014273643 0.159718156 -20.224128723
C 2.073475838 -3.522278786 -21.881275177
S 6.574533463 0.746744871 -22.821163177
C 4.297551632 -0.810169458 -23.445129395
C -0.015579700 -4.682623863 -22.492048264
C 4.348468781 -1.558762789 -19.831758499
C 3.994616508 -1.639927149 -21.143430710
N 1.419378281 -4.309598923 -22.509321213
C 5.324969769 -0.645219207 -19.418037415
14
name:0,n_samples:50,mol_size:14,random_seed:9323,imol:29
C 3.619812489 -4.180480003 -19.896436691
N 6.020228863 0.729184747 -18.991846085
O 6.048785210 2.394884109 -20.590702057
C 3.411332369 -3.492682934 -21.255002975
O 5.985868931 -3.392632961 -19.889053345
C 4.708830357 -2.996674776 -21.849830627
N 5.978356838 0.110583901 -21.145177841
C 4.854839802 -3.857521057 -19.109260559
C 5.780943394 -2.350847721 -20.816612244
C 5.230541229 -1.068319678 -20.348415375
O 4.835858345 -2.195044041 -22.963815689
C 6.086685181 1.202998042 -20.275100708
O 5.739788532 -1.308292031 -17.958623886
C 5.727708340 -0.593055427 -18.973268509
14
name:0,n_samples:50,mol_size:14,random_seed:9323,imol:30
C 1.122491360 -3.258224487 -21.262922287
O 5.558060646 2.413445950 -23.503421783
C 2.932308197 -2.524082661 -22.123712540
C 5.159220219 0.529145002 -21.973394394
C 3.823160410 -1.605460882 -21.280912399
C 5.015267372 -1.047951698 -21.987371445
O 5.632281780 0.016413808 -19.006462097
C 6.069415569 1.361967444 -21.031137466
O 6.773810387 0.642521620 -23.734300613
S 5.610274792 1.471753955 -19.445617676
C 5.679085255 1.052724004 -23.331130981
C 1.478883743 -2.000629663 -22.052356720
O 5.779525757 -1.777302504 -22.634084702
C 2.525772810 -3.826063633 -21.427961349
14
name:0,n_samples:50,mol_size:14,random_seed:9323,imol:31
C 4.689195156 -1.582134485 -21.215398788
C 4.412109375 -1.485057950 -22.683517456
C 1.289846897 -3.478450298 -23.503097534
C 2.097204208 -4.556120872 -22.756946564
C 5.719718933 -0.753212869 -20.694368362
C 2.000777483 -2.181797028 -23.147193909
C 6.673172474 1.369238496 -23.941940308
C 3.470958471 -2.519432306 -23.267257690
C 3.547357559 -3.981299877 -22.716442108
C 6.350421906 0.176421046 -21.586297989
C 4.996599197 -0.457728863 -23.584489822
O 6.061445236 -0.942717075 -19.445291519
C 5.975226402 0.386143088 -23.046653748
O 4.018857956 -2.267999172 -20.390848160
14
name:0,n_samples:50,mol_size:14,random_seed:9323,imol:32
O 6.251729012 1.971948743 -23.481760025
C 4.304469109 -0.934579730 -21.831077576
S 6.204911709 -0.354764402 -19.993150711
N 0.427020073 -3.609597683 -22.920171738
C 4.768870354 -1.208854675 -20.457399368
O 2.390751123 -5.122853756 -20.165973663
C 5.139025211 0.111875653 -22.361156464
C 0.876125336 -4.537785053 -21.966928482
C 2.849432945 -2.913907766 -21.255876541
C 1.799405813 -4.001123428 -20.814064026
C 5.206867695 0.969025016 -23.642230988
N 3.269431829 -1.821142316 -22.177822113
S 4.269538403 -2.962857485 -20.191560745
C 6.294551849 0.500886321 -21.481634140
14
name:0,n_samples:50,mol_size:14,random_seed:9323,imol:33
C 1.416103363 -4.980348587 -20.004568100
C 6.535275936 -1.102679372 -23.329460144
C 4.563612461 -0.928246498 -21.419713974
C 5.008957863 -2.471522331 -21.327297211
C 4.075785637 -3.622395515 -21.871288300
C 1.413783550 -4.119892597 -21.277172089
C 4.429503441 -2.560725451 -19.847249985
O 3.760368347 -0.697526455 -22.447597504
C 6.100030899 1.560621619 -22.812974930
C 2.712119818 -3.272079945 -21.406803131
C 2.900183678 -2.422542810 -20.093173981
O 5.006134510 -0.065415502 -20.614200592
C 6.159546852 0.324408293 -23.787582397
C 6.051249981 -2.422940016 -22.570568085
14
name:0,n_samples:50,mol_size:14,random_seed:9323,imol:34
O 5.996164799 0.203980446 -19.715148926
C 4.088047981 -2.180504799 -21.616367340
C 5.990664959 2.090589046 -21.536308289
C 5.664177895 -0.259391129 -20.882167816
C 5.144964695 -1.661512017 -20.798500061
C 4.079182625 -4.282035828 -20.485647202
C 6.258214474 0.509463668 -23.480463028
C 5.759042740 0.681142807 -22.021766663
C 5.110518456 -3.851033211 -19.649250031
C 3.545748711 -3.441787720 -21.444862366
C 5.657522202 -2.566673517 -19.814981461
C 6.828538418 -2.223137140 -18.858871460
O 6.310811520 1.739060521 -24.211772919
Cl 2.156161785 -4.030268669 -22.271360397
14
name:0,n_samples:50,mol_size:14,random_seed:9323,imol:35
C 5.439528942 0.323442578 -21.673734665
C 3.087664127 -2.346726894 -23.821222305
N 1.456086159 -3.975978851 -24.435657501
Cl 6.297381878 1.256939292 -22.844320297
C 6.098437309 -0.783683896 -18.605480194
C 4.919829845 -0.849665046 -20.946968079
O 6.903764248 -1.006473660 -17.864643097
C 4.138754845 -1.903427601 -21.539505005
C 5.319892883 -1.376052856 -19.672258377
C 3.811333895 -1.743950486 -22.960905075
C 2.240487337 -3.449930191 -23.454423904
O 2.277459383 -3.853209496 -22.229843140
O 4.035892010 -2.975285053 -20.722372055
C 4.793889999 -2.705137014 -19.533206940
14
name:0,n_samples:50,mol_size:14,random_seed:9323,imol:36
C 4.410375595 -1.065295458 -21.644222260
O 2.561678171 -2.230657101 -22.908721924
C 2.042352676 -3.930578709 -20.872014999
O 4.654586315 -0.173961699 -22.569534302
C 3.320644855 -2.112492800 -21.760677338
C 3.909914970 -2.812620163 -19.555570602
N 5.216400146 -0.957326353 -20.382446289
O 6.931413174 -0.100457549 -19.354116440
C 6.141231537 0.045192599 -20.231386185
C 3.068764925 -2.972531796 -20.717454910
O 6.134708405 1.112169385 -20.991474152
C 1.565645218 -3.185492992 -23.134973526
N 4.877213955 -1.900375605 -19.428836823
C 1.310240269 -4.029232025 -22.072101593
14
name:0,n_samples:50,mol_size:14,random_seed:9323,imol:37
C 5.864006996 -1.057838202 -18.930953979
C 4.744934082 -3.396936893 -22.828310013
C 6.043265820 -1.415684819 -20.405210495
C 3.572001457 -4.250527859 -22.378805161
C 4.754276752 -2.107104778 -20.747442245
N 2.574988842 -3.197347164 -22.169054031
N 5.875437737 -0.031457782 -20.727100372
C 4.494655609 -2.053970337 -22.251867294
C 5.881837845 0.407123923 -19.363355637
C 5.142510414 -0.880182266 -22.987386703
N 3.039689779 -1.952254653 -22.339918137
C 5.797033787 0.245584607 -22.120342255
O 0.976091385 -4.641773224 -21.274690628
C 1.343787670 -3.632041931 -21.708091736
14
name:0,n_samples:50,mol_size:14,random_seed:9323,imol:38
C 3.852281570 -4.288777351 -20.334995270
C 3.403638124 -4.455349922 -21.817848206
C 4.175946712 -1.661135435 -21.944505692
C 2.229465961 -3.589827538 -22.230079651
S 5.297914028 -0.792187333 -19.488882065
C 3.942317486 -3.066850185 -19.607492447
C 2.389157772 -4.483250141 -24.469001770
C 2.769362688 -2.153384209 -22.234930038
O 5.951867104 0.351243377 -20.564725876
C 4.642376423 -1.771076679 -20.550802231
O 1.567106247 -3.748320103 -23.564321518
C 3.680913687 -2.025460958 -23.384799957
C 5.144010067 0.731296659 -21.661422729
C 4.763776779 -0.356690824 -22.619846344
14
name:0,n_samples:50,mol_size:14,random_seed:9323,imol:39
C 5.926569462 -1.002499700 -21.252761841
N 4.230635166 -2.163940430 -20.107370377
C 4.331858158 -2.813996792 -22.276618958
C 5.982580185 -0.269757152 -19.897970200
O 7.213361740 -2.152951479 -19.223484039
C 6.403304100 -1.321128368 -18.923238754
C 3.240448475 -3.658807278 -22.017065048
C 3.226037025 -2.930770636 -19.757287979
C 6.002941608 -0.096699834 -22.467573166
C 4.807065010 -2.016834021 -21.236522675
C 2.672860384 -3.717404842 -20.719831467
C 2.744582415 -4.419948578 -23.130418777
C 5.601943493 -1.468852520 -17.701568604
C 1.495145321 -4.577126980 -20.363929749
14
name:0,n_samples:50,mol_size:14,random_seed:9323,imol:40
O 6.005933762 0.447223902 -23.566692352
C 3.839215517 -3.471099377 -19.984222412
C 6.115033150 1.076786637 -20.864290237
C 3.646583557 -1.457754850 -24.502929688
O 5.084125519 -1.275304794 -20.356645584
C 6.107031345 -4.378203392 -18.959344864
C 5.357381821 -0.589783430 -22.745063782
C 5.027876377 -4.063040733 -19.349527359
C 3.824714184 -0.898806214 -23.012863159
C 4.179070473 -2.259830713 -20.824140549
C 3.345264912 -1.942846417 -21.976629257
C 5.538825512 -0.282179296 -21.224597931
O 1.221808434 -2.527805328 -22.901317596
C 2.551580429 -3.089656830 -22.583177567
14
name:0,n_samples:50,mol_size:14,random_seed:9323,imol:41
O 5.710466862 -1.388018370 -17.676803589
C 1.217309952 -4.591539383 -22.622653961
C 5.834460735 0.020801783 -21.115043640
O 5.650930405 -0.086589217 -22.409961700
C 4.649148464 -2.079008579 -20.568006516
O 6.877180099 0.135515451 -18.635736465
C 3.151824474 -2.710955620 -22.303089142
C 6.047702312 -0.786186993 -18.740558624
C 4.029839516 -3.336106777 -20.223642349
O 6.185984612 1.081910014 -20.757556915
C 3.140430212 -3.680871964 -21.239561081
C 4.116562843 -1.686591625 -21.868423462
C 2.218766928 -4.863729954 -21.477293015
C 5.492114067 -1.060838223 -20.140897751
14
name:0,n_samples:50,mol_size:14,random_seed:9323,imol:42
C 5.696281433 -2.291431427 -17.346986771
O 6.040169716 -0.060578942 -18.375522614
C 5.024482250 0.217132688 -21.125389099
N 1.892112732 -4.417046547 -22.330421448
C 3.145893335 -4.024800301 -22.288049698
C 4.285955906 -1.789144516 -21.890497208
C 4.694624424 -1.797299266 -19.558456421
C 3.735859871 -3.001453876 -21.472454071
C 5.468390465 -1.302661777 -18.435739517
C 4.996925831 0.280638099 -22.539674759
C 2.449389219 -3.744193077 -23.551094055
C 4.686023712 -1.110591650 -20.759378433
I 6.337909222 1.520655274 -23.280998230
C 4.513837337 -0.976962090 -23.022914886
14
name:0,n_samples:50,mol_size:14,random_seed:9323,imol:43
C 4.509879112 -3.138489246 -20.267921448
C 5.322459221 0.389018655 -22.307907104
C 5.583666325 0.355572224 -20.933546066
C 5.153717995 -0.810834885 -20.371070862
C 3.337350130 -2.387488365 -22.034452438
O 6.282805920 1.287783980 -20.280057907
C 3.583875895 -4.085222244 -20.452909470
Cl 1.326142788 -3.898691177 -22.587512970
C 2.786149740 -3.602416039 -21.595796585
C 4.739106655 -0.816174090 -22.626373291
C 4.453826427 -1.809003830 -21.207365036
O 5.245761395 -0.875244141 -18.966341019
C 3.508819342 -5.375111580 -19.575389862
O 4.516061783 -1.232025504 -23.805057526
14
name:0,n_samples:50,mol_size:14,random_seed:9323,imol:44
C 5.112703800 -0.581243694 -21.730298996
C 3.393290043 -1.680562496 -22.912530899
C 3.728859901 -2.232801199 -20.655204773
C 1.908509254 -3.483587742 -21.554824829
C 4.435329914 -0.766989112 -22.935745239
C 5.770760059 -2.764178038 -17.471752167
C 2.997779846 -2.441855669 -21.758760452
C 5.750598907 -1.170093775 -19.651037216
C 4.790055752 -1.398582220 -20.684665680
C 6.166028500 0.221210361 -21.387046814
O 1.301738739 -3.470774174 -20.472627640
O 1.670272350 -4.413140774 -22.456430435
N 5.784882069 -1.778828859 -18.454803467
O 6.580966473 -0.175622344 -20.096073151
14
name:0,n_samples:50,mol_size:14,random_seed:9323,imol:45
C 6.910116196 -0.255443096 -18.711275101
O 6.278264999 -4.166143417 -19.899614334
C 6.089671135 -1.982034206 -20.021793365
C 2.963038683 -4.363499641 -20.590904236
C 6.546545982 -1.023347616 -20.873195648
C 1.542466879 -3.856010437 -21.186017990
O 7.114750385 0.035286546 -20.104269028
N -0.628970146 -4.713266850 -22.283809662
O 7.128998756 0.043827176 -22.631885529
C 6.382742882 -1.683602571 -18.583091736
O 6.590824127 -1.047535300 -22.125608444
C 0.623766899 -5.061017990 -21.589586258
C 3.987374306 -3.224614143 -20.721908569
C 5.504481316 -3.277395248 -20.255081177
14
name:0,n_samples:50,mol_size:14,random_seed:9323,imol:46
C 5.013426304 -3.218144894 -18.287200928
C 2.344799519 -4.664140701 -20.484161377
C 4.491957664 1.144747376 -20.270355225
C 5.230404377 -1.133141518 -19.697725296
C 4.678711414 1.365740657 -21.784309387
C 5.567780972 2.645787239 -21.866798401
C 3.820019960 -2.896511316 -20.470293045
C 4.462584019 -1.665557146 -20.710601807
S 2.196544647 -2.968127012 -22.926334381
C 3.197964191 -4.746914864 -19.322179794
C 2.692786694 -3.566044331 -21.241998672
C 4.104261398 -3.633180141 -19.301122665
N 5.643389702 0.240441561 -19.840259552
C 5.547216415 -1.878425479 -18.536142349
14
name:0,n_samples:50,mol_size:14,random_seed:9323,imol:47
C 6.213415146 1.463308454 -23.515628815
C 5.833353519 -1.143284798 -19.607280731
C 3.722808361 -1.132773876 -24.124704361
C 4.138932228 -1.662111521 -21.771717072
C 4.770287514 -1.477288008 -20.550859451
C 4.959359646 -0.388056815 -22.500207901
S 6.190097809 0.584251404 -22.140632629
O 6.539665699 -0.950487912 -18.773023605
C 3.498426914 -3.053242445 -21.108127594
C 4.687739372 -0.191843152 -23.813207626
C 3.243323088 -1.887417078 -23.084707260
C 2.211039543 -2.888564110 -23.068050385
C 2.455306053 -3.627354622 -21.851974487
C 5.347925186 0.840517879 -24.422096252
14
name:0,n_samples:50,mol_size:14,random_seed:9323,imol:48
C 4.570730209 -2.277235031 -20.709646225
C 5.427000046 -0.361749113 -22.083553314
C 2.273750067 -2.966339588 -21.396345139
O 6.308426380 0.260625362 -18.659337997
C 6.009650230 1.098239303 -22.280630112
C 3.748111725 -2.658641815 -21.767080307
C 4.869870186 -1.022049427 -23.214355469
C 5.463176250 -0.109059572 -19.573064804
C 1.594473600 -4.003524303 -22.232065201
C 5.221962452 -0.886017382 -20.823511124
O 4.077428341 -2.379693985 -19.315290451
C 1.058917046 -3.345714092 -23.516069412
C 3.896724939 -2.008766651 -23.074604034
C 4.684061050 -3.410889626 -21.352491379
14
name:0,n_samples:50,mol_size:14,random_seed:9323,imol:49
C 3.240078688 -2.856559277 -21.590538025
O 5.352013588 -3.115565538 -22.755218506
N 2.859333277 -1.937316656 -20.726032257
C 0.612546921 -4.348927498 -22.867015839
C 5.928557396 0.930455804 -21.397302628
N 2.611857891 -4.061555386 -21.615146637
C 1.149688721 -4.122378826 -21.447103500
C 6.182886600 1.010927081 -19.909318924
C 4.502769470 -2.449804783 -22.075826645
C 4.869871140 -1.290373325 -21.385837555
O 4.003155231 -0.496853054 -19.167196274
S 7.061434746 -0.514046967 -23.224010468
C 6.025325775 -0.478890419 -21.887699127
C 3.912891388 -1.117573380 -20.334140778
