11
name:0,n_samples:50,mol_size:11,random_seed:19547,imol:0
C 5.371804237 -0.966835439 -21.971990585
C 4.478384972 -1.931975603 -22.761270523
C 3.187288523 -1.881940246 -21.990720749
O 5.634192467 1.431568027 -21.762922287
C 3.457095861 -2.645080090 -20.734254837
C 2.772989988 -3.841331005 -20.721782684
O 1.914871931 -3.736288548 -22.972873688
C 5.395431519 0.379613042 -22.686021805
C 2.211090088 -4.552356243 -21.883445740
C 5.331363201 -1.048987865 -20.421199799
C 4.166868210 -1.672952414 -19.816492081
11
name:0,n_samples:50,mol_size:11,random_seed:19547,imol:1
C 2.125880957 -4.493013859 -21.862815857
C 3.803305149 -3.099025249 -20.791524887
C 4.854258537 -0.838795304 -20.754400253
C 5.610726357 -1.344060898 -18.206844330
O 5.566549778 -0.441549361 -21.832145691
C 3.629726171 -1.598924160 -21.155025482
C 5.290379047 -0.549553037 -19.454811096
O 4.863611698 -2.460319042 -17.926452637
O 5.777594090 0.692544341 -19.329524994
C 1.275261879 -3.261394024 -21.465940475
C 2.404972553 -3.707008362 -20.602188110
11
name:0,n_samples:50,mol_size:11,random_seed:19547,imol:2
C 4.495013237 -1.955708742 -22.470069885
C 5.756471634 -0.452138722 -21.134111404
Br 6.302196503 -0.594470680 -18.404966354
O 6.488569736 0.678084135 -21.227813721
C 5.362302303 -1.270118237 -19.955944061
C 4.481061935 -2.295413733 -20.047029495
C 6.663803577 1.017497420 -22.672718048
O 5.926057339 -0.020462871 -23.311529160
C 4.009203911 -2.604687214 -21.339660645
C 5.341518402 -0.892028332 -22.286151886
Cl 2.533415318 -3.741302967 -21.429180145
11
name:0,n_samples:50,mol_size:11,random_seed:19547,imol:3
C 4.159268379 -1.827270865 -22.075145721
C 4.208931923 -3.247640610 -20.113931656
C 4.423723221 -3.178081989 -22.806526184
O 4.995141506 -2.736482620 -19.057641983
O 5.507799625 0.815306306 -19.853937149
C 2.233432293 -4.366840839 -20.897630692
C 5.396356583 -0.991461098 -21.566307068
C 4.984586239 0.476943612 -21.167692184
C 3.218640089 -4.289890766 -19.706769943
C 3.368642807 -2.220852613 -20.854417801
C 2.133514166 -2.923658371 -21.451091766
11
name:0,n_samples:50,mol_size:11,random_seed:19547,imol:4
C 2.941756248 -2.605687141 -22.464090347
C 3.392479420 -1.970671892 -21.223245621
C 6.102484226 -0.414305389 -18.134191513
C 6.292655468 0.474053383 -21.426828384
C 5.492963314 -0.496673703 -19.371700287
C 6.527204514 0.401721716 -22.792613983
C 5.410094738 -0.388228536 -20.777069092
C 5.801432133 -0.523711801 -23.541915894
C 4.578152657 -1.158284187 -21.532859802
C 4.853318691 -1.280986428 -22.898555756
C 3.961108923 -2.282147169 -23.466993332
11
name:0,n_samples:50,mol_size:11,random_seed:19547,imol:5
O 2.029151440 -4.345036030 -20.771831512
C 5.870585918 -0.765404403 -20.128444672
C 2.817575455 -3.556600094 -21.509092331
C 5.586710930 -0.978601575 -21.426036835
O 6.465195179 0.477387547 -19.687070847
O 6.126130104 0.021102548 -22.419305801
C 3.984892845 -2.859211683 -20.967702866
C 5.407380581 -1.854971409 -19.089426041
O 2.501415968 -3.447684288 -22.845941544
C 4.672705650 -1.971125364 -21.887874603
C 4.453995228 -2.798163891 -19.628595352
11
name:0,n_samples:50,mol_size:11,random_seed:19547,imol:6
C 4.521466732 -2.412526131 -20.857547760
C 2.563503504 -3.786819935 -21.561838150
C 5.604488850 -0.435051680 -21.629951477
C 1.266870499 -4.466246128 -21.281782150
C 4.937185287 -1.731588364 -21.947973251
O 6.482387543 0.333980560 -19.389238358
C 5.209949017 -1.929513454 -19.574645996
C 2.926491737 -3.509557724 -22.887863159
O 5.147900581 -2.177740812 -23.253984451
C 5.846099854 -0.769753933 -20.205669403
C 3.426050425 -3.413341999 -20.462652206
11
name:0,n_samples:50,mol_size:11,random_seed:19547,imol:7
C 5.754297256 1.542994857 -23.127408981
C 1.727414131 -3.682457924 -20.896251678
C 5.438827038 -1.580299616 -18.636972427
C 5.164878845 -0.899894297 -22.250614166
C 5.151261330 -1.862127066 -20.091712952
C 3.223442316 -3.424321651 -21.314979553
O 6.821111202 -0.065397382 -20.556617737
C 5.214663029 0.078345776 -23.348228455
C 4.241753101 -3.016539574 -20.239170074
N 5.760421276 -0.873753190 -20.921205521
O 4.046996117 -3.816597939 -19.088285446
11
name:0,n_samples:50,mol_size:11,random_seed:19547,imol:8
C 5.132993698 -0.003623128 -22.171678543
C 5.668784142 1.068121791 -23.140153885
C 1.930647850 -3.659792423 -22.203742981
C 1.270096779 -3.383197308 -23.447931290
C 5.592248917 0.304576755 -20.723224640
C 4.509476662 -3.761399746 -22.314233780
C 4.175647259 -0.688294649 -22.579431534
C 3.054819584 -1.591335535 -22.728902817
O 6.290069103 1.300063014 -20.503446579
O 5.270100594 -0.399835110 -19.755685806
C 3.211982489 -2.927371740 -22.003396988
11
name:0,n_samples:50,mol_size:11,random_seed:19547,imol:9
O 2.000255108 -3.624811649 -23.660255432
C 2.595194101 -2.414291859 -21.691043854
C 6.414172649 1.119595408 -22.575447083
O 0.907026291 -4.034462929 -21.906036377
C 1.777957678 -3.424710751 -22.482818604
O 3.336836815 -3.089235783 -20.662891388
O 6.026521206 0.817666769 -21.257808685
C 4.717278957 -0.925436080 -22.298082352
C 3.383026838 -1.643523693 -22.724502563
O 4.417442322 -0.429848611 -19.877977371
C 4.670739174 0.156032324 -21.216377258
11
name:0,n_samples:50,mol_size:11,random_seed:19547,imol:10
C 4.770730019 -0.178865731 -20.345163345
C 3.364732504 -2.968877792 -21.759199142
C 5.966073036 1.098372817 -22.577222824
C 3.576724052 -1.682339787 -22.556373596
C 4.266634941 -0.503134310 -21.717107773
C 2.313962698 -1.295130134 -23.299705505
N 4.893624306 0.238087535 -22.840105057
C 6.461880684 1.380423427 -21.261020660
O 3.301100254 -2.618525028 -20.452981949
O 4.282735825 -0.624920249 -19.172620773
C 5.904823303 0.711685777 -20.174850464
11
name:0,n_samples:50,mol_size:11,random_seed:19547,imol:11
C 6.312775135 -0.731451869 -19.275402069
C 4.922525406 -2.337992191 -20.491603851
O 5.970423698 0.559390903 -22.839931488
C 6.174346447 0.143707752 -20.394777298
C 5.720956802 -1.986993551 -19.311033249
O 4.015375614 -3.412132263 -20.391939163
N 4.390126228 -2.023145199 -22.803073883
C 5.704531193 -0.321736991 -21.643983841
C 2.815536499 -3.492478371 -21.382240295
C 3.416850090 -3.186054707 -22.805271149
C 5.025317192 -1.541283250 -21.686042786
11
name:0,n_samples:50,mol_size:11,random_seed:19547,imol:12
N 5.117142200 -0.294157743 -23.724493027
C 5.883570671 0.723299026 -22.911092758
O 2.967026949 -3.570008755 -22.428689957
C 5.707269669 1.448416591 -20.358364105
S 1.878693819 -3.767483234 -20.090715408
C 3.012894630 -2.982258558 -21.211025238
N 3.696096420 -1.930103064 -20.665313721
O 4.499025822 -0.686464429 -19.875865936
C 4.584066868 -0.899227560 -21.258434296
C 5.714675426 0.227594972 -21.443351746
C 4.541903019 -1.373562694 -22.836036682
11
name:0,n_samples:50,mol_size:11,random_seed:19547,imol:13
O 2.427644730 -4.051292419 -22.881647110
C 4.314824104 -2.497917652 -21.046195984
S 5.422059536 0.375208855 -23.058671951
C 4.984865665 -2.894382000 -19.782592773
C 6.046060085 -1.797786474 -19.321825027
C 4.000903130 -0.667716920 -22.557752609
C 3.738398075 -2.107230425 -22.239166260
O 6.084822655 -0.471828103 -19.539398193
C 7.334134579 -2.355286360 -18.735984802
C 2.921824217 -2.987000942 -23.173799515
O 2.722607136 -2.493391275 -24.432538986
11
name:0,n_samples:50,mol_size:11,random_seed:19547,imol:14
C 5.268699169 -0.009463429 -22.903175354
O 4.878520966 -0.555332601 -23.842216492
C 4.900696754 -2.006226540 -19.975067139
O 5.257135868 0.137463689 -20.257471085
C 3.437094450 -2.349775791 -21.923957825
C 4.349626064 -1.615211725 -21.233760834
O 2.469807148 -2.880669117 -21.373338699
O 3.388123751 -2.676689625 -23.202896118
C 4.969724655 -0.405977607 -21.459451675
Cl 6.109360695 1.368509889 -23.460395813
O 5.585688114 -0.965671957 -19.340826035
11
name:0,n_samples:50,mol_size:11,random_seed:19547,imol:15
O 5.802519321 1.053372264 -21.977479935
O 1.514571190 -3.406057835 -22.670995712
O 2.218161821 -4.577079773 -20.588653564
C 3.853391886 -2.995512962 -19.891698837
C 2.808824062 -3.586870670 -20.742530823
N 2.503001451 -2.880120277 -21.759798050
C 3.916568279 -0.471155584 -22.400600433
C 5.016285419 0.134690762 -21.663820267
C 4.200240135 -1.683001518 -20.455959320
N 5.160039902 -0.544163048 -20.398654938
C 3.530620098 -1.683857918 -21.739471436
11
name:0,n_samples:50,mol_size:11,random_seed:19547,imol:16
C 4.566162586 -2.081595182 -22.277866364
O 6.169281483 0.178340673 -23.018396378
C 5.405544281 -1.400606394 -21.258892059
C 6.496390343 1.178373694 -23.825656891
C 6.167541027 -1.895072699 -18.772584915
O 6.863109589 0.627793789 -20.790290833
C 3.876609802 -3.216497421 -21.502780914
C 4.435497284 -3.262866974 -20.190305710
C 6.157032490 -0.074511766 -21.626493454
O 2.916904211 -3.970192909 -21.895133972
C 5.369115829 -2.151229858 -20.015409470
11
name:0,n_samples:50,mol_size:11,random_seed:19547,imol:17
N 3.585642099 -2.746833563 -21.131587982
C 6.796836853 0.910682559 -21.464494705
C 4.044455528 -2.616092682 -19.875204086
C 6.383700371 0.595967412 -22.749832153
C 5.007895947 -1.665577054 -19.528369904
C 5.469541073 -0.860087156 -20.562871933
C 6.382737160 0.190595746 -20.351974487
N 5.532034874 -0.396713078 -22.966054916
C 4.019792557 -2.025890827 -22.145408630
C 5.016363621 -1.097454667 -21.896484375
Cl 2.383659363 -3.969665527 -21.703489304
11
name:0,n_samples:50,mol_size:11,random_seed:19547,imol:18
C 5.528724194 -0.436567008 -20.817174911
N 1.858407021 -3.827634811 -21.271993637
C 3.590659142 -2.311044455 -20.511259079
O 5.282196999 1.203505874 -22.815994263
C 4.598279953 -1.527978539 -21.180788040
O 5.940874577 -0.201538503 -19.593788147
C 4.434457779 -1.933840036 -22.502853394
C 2.908570290 -3.062204838 -21.463479996
C 0.993805408 -4.601264954 -22.146831512
N 3.479830742 -2.848547220 -22.686975479
C 6.076424599 0.474296331 -21.857477188
11
name:0,n_samples:50,mol_size:11,random_seed:19547,imol:19
C 6.066845894 -0.119417310 -20.480787277
O 3.377192259 -2.887196302 -23.657617569
C 5.991494656 -0.284417510 -21.888498306
C 5.174496651 -1.234228134 -22.439651489
C 4.580428600 -1.916385651 -20.155612946
C 5.863473415 -0.997005343 -18.208152771
C 2.499250889 -3.950691223 -21.703237534
C 3.406172752 -2.980995655 -22.372377396
C 4.356519222 -2.105987072 -21.607206345
F 3.949163914 -2.741812706 -19.426956177
C 5.439669132 -0.991208315 -19.641345978
11
name:0,n_samples:50,mol_size:11,random_seed:19547,imol:20
C 3.236140966 -2.740650177 -21.554759979
S 4.485347748 -0.752001286 -22.793933868
C 5.602489471 1.032577157 -21.127973557
C 6.114093781 1.763189435 -22.487546921
C 3.397621393 -1.959417105 -22.700235367
C 2.340715170 -4.897497177 -20.590364456
C 3.706333637 -2.313810587 -20.309597015
C 4.420032024 -1.127862096 -20.172044754
O 2.622892141 -4.472817421 -22.987874985
C 4.832784653 -0.244775891 -21.218324661
C 2.659481525 -4.093055725 -21.747575760
11
name:0,n_samples:50,mol_size:11,random_seed:19547,imol:21
C 3.453654289 -3.057227612 -20.496919632
C 0.559953690 -4.965920925 -20.891427994
C 2.116549969 -3.140959263 -21.147861481
C 4.583884716 -0.676907599 -20.490009308
C 4.629046440 -3.069771290 -21.410345078
O 6.896125317 0.994104505 -23.121381760
O 1.205758095 -2.332486629 -20.796871185
C 6.135349274 0.315072894 -22.443943024
C 3.893914938 -1.791868806 -21.084888458
O 1.676444530 -4.309804916 -21.576374054
C 5.776882648 -0.335700095 -21.331226349
11
name:0,n_samples:50,mol_size:11,random_seed:19547,imol:22
C 6.086274147 -0.409907341 -21.427993774
C 6.454155922 0.589096427 -20.306724548
C 4.034544468 -1.753684044 -22.352598190
C 2.869425297 -3.889730930 -22.484943390
C 3.963390827 -0.404893398 -20.155712128
C 4.840782642 -0.806677461 -18.965238571
C 6.138169289 0.004285097 -18.915519714
C 1.604948282 -3.678543568 -21.660236359
C 3.669766903 -2.994819164 -21.463205338
C 2.335872173 -2.767478943 -20.669559479
C 4.552894115 -0.517710328 -21.551683426
11
name:0,n_samples:50,mol_size:11,random_seed:19547,imol:23
C 4.652342796 -0.881715357 -22.014219284
C 3.936559677 -1.893213987 -21.405326843
C 2.658945799 -3.730979919 -20.952432632
C 3.816796064 -1.575918198 -20.051309586
Cl 6.277262688 1.231727958 -22.479434967
N 4.453920841 -0.528573394 -19.436285019
C 3.628522873 -2.873352766 -22.794569016
N 3.321029186 -2.556311131 -20.579753876
C 5.242259502 0.429148316 -20.106050491
N 2.928476334 -3.924107552 -22.310623169
C 5.395624161 0.196190238 -21.430515289
11
name:0,n_samples:50,mol_size:11,random_seed:19547,imol:24
C 4.162510872 -3.229031563 -19.490890503
C 3.703492641 -2.659147263 -20.885627747
C 6.034543991 0.291622639 -20.189147949
C 4.424233437 -1.288658261 -21.229499817
C 4.615080357 -0.593985081 -22.480184555
O 1.670746088 -4.285002708 -21.051437378
C 6.261297703 0.905764937 -21.446397781
C 5.526082993 0.484763861 -22.609146118
N 2.312685251 -3.048375607 -23.051902771
C 5.093674660 -0.736016333 -20.070268631
C 2.511249304 -3.288631439 -21.633361816
11
name:0,n_samples:50,mol_size:11,random_seed:19547,imol:25
C 5.404391766 0.704634428 -21.714946747
C 4.431210041 -2.046205997 -23.901823044
C 6.024847031 1.522325635 -22.864505768
C 3.280108213 -2.539783478 -21.776447296
C 3.488797903 -2.828443527 -23.172189713
O 2.395683289 -3.180556297 -21.109197617
C 4.080188751 -1.493272066 -21.137861252
C 4.898434639 -0.629413188 -22.000310898
C 5.155866146 -1.044859171 -23.349704742
C 5.370343208 1.394045472 -20.373722076
O 4.072332382 -1.407395601 -19.845838547
11
name:0,n_samples:50,mol_size:11,random_seed:19547,imol:26
O 6.706174850 0.829758644 -21.099937439
C 4.098763943 -1.933931351 -20.637784958
N 3.717313290 -0.914728165 -22.706289291
O 3.976814747 -2.899950266 -18.482460022
S 2.370474577 -4.175455570 -20.459625244
C 5.630388260 0.384966254 -21.482906342
C 3.355593920 -2.011868000 -21.819852829
C 5.362246513 1.359096169 -22.769557953
C 2.353998423 -3.077386856 -21.869363785
C 5.159498692 -0.749494791 -20.479982376
C 3.657413006 -2.901093245 -19.802362442
11
name:0,n_samples:50,mol_size:11,random_seed:19547,imol:27
C 3.493688583 -1.191492438 -20.309402466
C 4.711538792 0.238495350 -21.999948502
C 4.218228817 0.023783088 -20.650295258
C 3.534893036 -1.929623365 -22.652187347
N 2.901914597 -2.711304188 -23.598871231
C 1.768961668 -4.061129570 -22.128171921
N 2.030483723 -3.702733040 -23.373146057
C 3.162761211 -2.196259022 -21.317558289
N 4.435180664 -0.846795022 -22.901165009
O 5.279563904 1.247491241 -22.337066650
C 2.369650126 -3.336375713 -21.140001297
11
name:0,n_samples:50,mol_size:11,random_seed:19547,imol:28
O 2.392957926 -3.051904202 -22.070093155
C 4.307260990 -1.635618210 -22.474857330
N 4.641685486 -3.366719246 -17.862569809
C 5.862504959 -1.318007112 -20.574985504
Cl 6.513996601 -0.021034718 -22.891147614
Cl 7.316904068 -0.633374810 -19.658538818
C 5.476283550 -1.057809591 -21.934740067
C 3.874760628 -2.729322433 -20.370960236
N 5.385264874 -2.474003553 -18.539487839
C 5.031600952 -2.181625843 -19.854141235
C 3.512049437 -2.470573187 -21.673612595
11
name:0,n_samples:50,mol_size:11,random_seed:19547,imol:29
C 2.326210022 -3.183733940 -21.687643051
O 5.988870144 0.360094070 -19.186189651
C 1.190987110 -4.240459442 -22.095268250
C 3.745680809 -1.321682930 -21.259187698
O 4.702885628 -0.864745915 -23.476581573
O 2.957613707 -2.076464891 -22.345792770
C 4.074282646 -2.358070374 -20.104230881
C 2.916822672 -3.328556061 -20.294233322
C 5.420936584 0.919163108 -20.306539536
C 4.933522224 -0.823203206 -22.085163116
C 5.428587437 0.542937756 -21.660842896
11
name:0,n_samples:50,mol_size:11,random_seed:19547,imol:30
C 5.170877457 -0.334686697 -21.264877319
C 5.619893551 0.834088326 -21.933174133
C 3.468929529 -2.050801992 -23.162012100
C 4.162694454 -0.972055733 -20.646877289
O 1.586405039 -3.338687897 -23.355791092
O 5.930168152 1.392480493 -22.974714279
O 6.256981850 0.294928432 -20.974903107
C 2.646227598 -3.530643940 -21.342229843
C 3.485120773 -3.407686234 -20.230163574
C 2.493767738 -2.997972488 -22.621067047
C 4.345735073 -2.253637791 -19.840160370
11
name:0,n_samples:50,mol_size:11,random_seed:19547,imol:31
C 4.764194489 0.315267801 -20.038597107
C 5.153453827 1.154242635 -21.109674454
C 1.649116993 -2.656558514 -22.385505676
O 5.550409794 2.512373447 -20.948566437
C 4.823181629 -3.991467476 -21.422496796
C 4.867548466 -0.625760436 -22.649477005
C 4.126310349 -3.067138195 -21.962499619
C 4.436843872 -1.045297503 -20.276081085
C 5.204993725 0.681731224 -22.385358810
N 2.819096804 -3.489714146 -22.495702744
C 4.444488049 -1.590914965 -21.620754242
11
name:0,n_samples:50,mol_size:11,random_seed:19547,imol:32
O 4.311356544 -2.393282890 -19.716760635
O 6.943117619 -0.223905623 -18.754211426
N 6.297000885 0.343150735 -21.337493896
C 5.207071781 0.145401955 -23.303905487
C 4.605832100 -0.810774803 -22.383895874
C 5.375310898 -0.648967981 -21.122720718
O 2.842456341 -2.629123211 -22.124271393
C 5.146972656 -1.344964504 -19.853721619
C 6.214990139 0.821363926 -22.611404419
C 6.200427055 -1.291782737 -18.718589783
C 3.557087660 -1.733898640 -22.433610916
11
name:0,n_samples:50,mol_size:11,random_seed:19547,imol:33
C 3.360785723 -1.466042280 -20.412982941
O 5.601912975 0.530572295 -20.289228439
C 2.538557291 -2.652121067 -22.592361450
C 4.723262310 -1.591796637 -21.189134598
C 2.172456741 -1.894601107 -21.301576614
O 5.027690411 0.416619539 -22.387947083
C 3.442746878 -3.776650429 -22.048894882
O 0.545247078 -2.145538807 -23.535518646
N 1.364419460 -3.101994514 -23.341579437
C 5.167710781 -0.152808130 -21.209783554
C 4.739775658 -3.106683493 -21.649166107
11
name:0,n_samples:50,mol_size:11,random_seed:19547,imol:34
N 3.720936298 -1.124362469 -23.231269836
O 3.892591476 -3.199509621 -19.691083908
C 5.963068962 0.599107862 -19.962160110
C 3.023990870 -2.334196568 -23.008516312
N 3.126715422 -2.989850044 -21.779561996
C 3.909365416 -2.543365955 -20.710226059
C 5.358721256 -0.715070844 -19.806411743
C 5.199939728 0.726764083 -22.282892227
C 4.519456863 -0.528754950 -22.155143738
C 5.882621288 1.304922938 -21.206048965
C 4.619370461 -1.295761943 -20.840095520
11
name:0,n_samples:50,mol_size:11,random_seed:19547,imol:35
C 4.924262524 -0.961281300 -20.384387970
C 4.303785324 -2.241117954 -20.202646255
N 2.986136436 -2.425482273 -20.536396027
O 4.295664787 -4.514768124 -19.406744003
C 5.014743328 -0.308878899 -21.678899765
C 5.787823200 1.005486608 -21.746618271
C 5.077353954 -3.491895676 -19.942180634
C 4.584929466 -0.722492695 -23.062984467
O 5.010766983 1.890744328 -20.951492310
O 4.069956303 -3.274166107 -22.890335083
C 4.281704903 -2.150465012 -22.988594055
11
name:0,n_samples:50,mol_size:11,random_seed:19547,imol:36
O 6.296550751 -0.277585030 -18.248640060
C 5.257727146 -1.033318162 -21.147565842
O 5.387493134 0.339063764 -21.207113266
C 3.997909307 -2.784629107 -20.070631027
O 3.803231716 -3.654888630 -19.223756790
C 4.672654629 -1.509382129 -19.828578949
O 4.794905663 -1.830278397 -17.478328705
C 3.840653419 -2.814161539 -21.522911072
O 4.449028969 -1.767714977 -22.121957779
O 2.895565987 -3.637942791 -22.099252701
C 5.248843670 -1.272386789 -18.457771301
11
name:0,n_samples:50,mol_size:11,random_seed:19547,imol:37
C 4.185895443 -1.439739227 -21.498819351
C 4.551818848 -2.827216625 -22.226541519
C 1.746862173 -4.619524479 -22.064586639
O 5.865575314 -0.186294496 -20.625612259
O 5.278952599 -2.061143398 -19.506744385
C 0.616666317 -4.600755215 -23.069562912
C 5.166397095 -1.265115261 -20.425048828
C 3.407850027 -3.129797935 -23.121126175
C 2.246257305 -3.174918652 -22.080940247
C 5.421208858 0.448533654 -21.759929657
C 4.454155922 -0.288325965 -22.398883820
11
name:0,n_samples:50,mol_size:11,random_seed:19547,imol:38
C 3.650255203 -1.526995540 -22.121013641
N 5.377699375 -1.038179517 -20.367765427
C 4.504775047 -1.832697392 -21.077682495
C 6.027264595 0.081378102 -21.135339737
C 2.917247057 -3.552610874 -21.584968567
C 5.777378559 -1.006781697 -18.962896347
S 4.284376144 -3.403405666 -20.636438370
C 2.729962349 -2.498661518 -22.395133972
C 5.263691902 -2.100964069 -18.019649506
O 6.517216206 -0.219674826 -18.519130707
S 1.676217556 -4.622747898 -20.915933609
11
name:0,n_samples:50,mol_size:11,random_seed:19547,imol:39
O 6.705405235 1.391188502 -22.358669281
C 4.000120163 -1.875799894 -22.763328552
C 1.873747349 -3.683023453 -20.871049881
C 4.184043407 -1.267299414 -21.513391495
N 3.036924601 -3.113159180 -20.141819000
C 5.828936577 0.336242318 -22.486839294
C 5.629915237 -0.328293979 -23.712568283
C 0.858942986 -4.211161613 -19.878404617
C 4.729540348 -1.399313450 -23.845001221
C 3.374611616 -1.737834930 -20.211690903
C 5.100906849 -0.157829165 -21.409410477
11
name:0,n_samples:50,mol_size:11,random_seed:19547,imol:40
C 5.093025208 0.277017593 -20.822580338
O 6.028915405 1.250026107 -20.378513336
N 4.361143112 -0.705636680 -20.123409271
C 3.032506227 -1.816706419 -23.399396896
C 4.714224815 -0.090834260 -22.274784088
C 3.577032804 -1.628979325 -20.884145737
C 2.057480097 -3.337836742 -21.824726105
N 2.242488623 -2.861377001 -23.066373825
N 2.587056637 -2.846357346 -20.690530777
N 1.311322212 -4.376286507 -21.618968964
C 3.758693695 -1.258255363 -22.301553726
11
name:0,n_samples:50,mol_size:11,random_seed:19547,imol:41
O 2.265070200 -3.966334343 -22.898279190
C 3.336274147 -1.990417242 -22.375425339
C 5.593239784 -1.140712619 -19.877086639
C 5.356116772 0.564448833 -21.889663696
C 2.521830320 -3.027093887 -22.110685349
O 6.366797924 -0.428886890 -19.233425140
O 5.052474022 -2.265980482 -19.423587799
C 4.821028709 -1.987254739 -22.197944641
O 2.504287243 -2.073946953 -21.341732025
C 5.199688911 -0.820145011 -21.294317245
C 5.323436737 0.586445212 -23.412729263
11
name:0,n_samples:50,mol_size:11,random_seed:19547,imol:42
Cl 1.830119610 -3.775215149 -22.457574844
C 5.766732693 0.020916224 -22.032726288
C 3.120833635 -2.876699448 -21.605051041
C 5.920781136 -0.530732155 -19.162645340
C 3.391522169 -3.204642296 -20.234277725
C 4.991881847 -1.352337480 -20.035228729
S 5.529651642 0.766455173 -23.608533859
O 6.757689476 0.373878717 -21.409631729
C 4.290493011 -2.420447350 -19.460706711
C 3.866851807 -1.793077707 -22.218837738
C 4.852502823 -1.059704900 -21.402755737
11
name:0,n_samples:50,mol_size:11,random_seed:19547,imol:43
C 2.364596128 -3.934571743 -23.029697418
C 5.178012371 -0.146827042 -20.601970673
O 1.945249796 -4.590968609 -22.084266663
C 5.876038074 -0.575549901 -22.953977585
C 3.970123768 -1.962558270 -21.864696503
C 4.218437672 -1.169417977 -20.793422699
C 3.442190409 -2.845226765 -22.804882050
C 4.826596737 -1.666724205 -22.979387283
N 3.373435974 -2.040667057 -20.629667282
O 1.870902300 -4.157733440 -24.121885300
C 6.025336742 0.217952251 -21.718072891
11
name:0,n_samples:50,mol_size:11,random_seed:19547,imol:44
N 2.121147156 -4.310603619 -22.046310425
O 5.515993595 -2.010871887 -18.082576752
C 4.224882126 -3.940829754 -18.850925446
S 4.326365471 -1.359264851 -20.332386017
C 5.664495468 0.717874885 -21.478626251
S 0.881206989 -5.123758316 -19.956787109
C 2.235528231 -4.463894844 -20.670209885
C 5.361763954 -0.011915326 -20.219186783
N 3.305162907 -4.262437344 -19.871932983
C 5.931663036 0.646504521 -18.994628906
C 4.731349945 -2.496938229 -18.918535233
11
name:0,n_samples:50,mol_size:11,random_seed:19547,imol:45
C 4.656238556 -1.588495493 -20.493545532
O 5.011985779 -0.981473804 -19.334756851
C 5.880374432 0.368534446 -23.284635544
C 4.999620914 -1.076547623 -21.707715988
C 5.676387787 0.118969083 -21.949260712
C 3.986355305 -2.791369915 -20.744356155
C 4.815164089 -1.697037220 -23.973197937
C 4.572459698 -1.980811954 -22.677326202
C 3.915117741 -3.054141521 -22.093503952
N 5.466333389 -0.521362603 -24.241729736
O 6.066005707 0.967969775 -20.983842850
11
name:0,n_samples:50,mol_size:11,random_seed:19547,imol:46
N 1.698563337 -3.699255466 -22.593976974
C 4.751405716 -0.173661411 -21.404640198
C 3.204154730 -1.969516754 -20.631223679
C 5.523707390 -2.450239182 -21.430852890
C 5.776428223 0.519054174 -20.481691360
C 3.220660925 -3.795510292 -22.328638077
C 4.635515213 -1.626850963 -20.953048706
C 5.525968075 -2.330671787 -20.001640320
C 5.665517330 0.642139673 -18.949670792
C 3.296081781 -3.462532520 -20.847803116
N 5.997541428 1.866595864 -21.079378128
11
name:0,n_samples:50,mol_size:11,random_seed:19547,imol:47
O 5.799458027 1.030344605 -20.709434509
C 5.907496929 0.052138567 -21.943372726
C 4.940661907 0.142055631 -20.064245224
C 4.670535088 -0.710374475 -23.657617569
C 3.906565189 -0.997982264 -22.444843292
C 3.486483335 -2.240011930 -21.955205917
C 5.493544102 -0.264408946 -18.696252823
C 5.534222126 0.643484950 -23.297443390
O 4.155712128 -1.925283313 -20.505735397
C 2.214551926 -3.262362003 -21.899717331
C 4.947975636 -0.870859265 -21.266151428
11
name:0,n_samples:50,mol_size:11,random_seed:19547,imol:48
C 5.497326374 -2.386312485 -19.307960510
C 2.385819197 -3.186555386 -21.643287659
S 7.303352833 -1.526940107 -17.855522156
C 5.629996300 -0.124768257 -21.063795090
O 6.222574234 -3.115678310 -18.335371017
C 6.237319946 -1.193635941 -19.056068420
C 4.902012825 -1.272763014 -21.410848618
C 4.652183056 -2.319868803 -20.463130951
N 3.557999611 -3.249987125 -20.663465500
Br 4.364938259 -1.123051643 -23.355106354
C 6.295416832 -0.061829567 -19.852468491
11
name:0,n_samples:50,mol_size:11,random_seed:19547,imol:49
N 3.374923229 -2.324481487 -22.581687927
C 5.154298782 -1.262117863 -21.240274429
C 2.632785320 -2.360052109 -23.932313919
C 4.414635658 -1.412486196 -22.392812729
O 6.263081551 -0.476076663 -21.206085205
O 6.044776440 0.925101161 -23.157781601
C 2.999338150 -3.140159130 -21.535900116
C 4.677145481 -2.016704559 -20.137601852
O 2.055930138 -4.082218647 -21.803224564
C 6.549836159 0.439447165 -22.139636993
C 3.610477686 -2.944355011 -20.287235260
