mol_61526
     RDKit          3D

 19 20  0  0  0  0  0  0  0  0999 V2000
  -90.0702  192.6101   26.2786 C   0  0  0  0  0  0  0  0  0  0  0  0
  -94.8405  194.3991   22.4657 S   0  0  0  0  0  0  0  0  0  0  0  0
  -96.0140  195.7627   22.5965 S   0  0  0  0  0  0  0  0  0  0  0  0
  -88.1939  192.4646   27.3406 C   0  0  0  0  0  0  0  0  0  0  0  0
  -93.0429  194.0197   23.7365 C   0  0  0  0  0  0  0  0  0  0  0  0
  -94.4357  193.5952   23.9444 C   0  0  0  0  0  0  0  0  0  0  0  0
  -93.4755  194.9247   22.5134 O   0  0  0  0  0  0  0  0  0  0  0  0
  -94.4684  192.8248   25.2404 C   0  0  2  0  0  0  0  0  0  0  0  0
  -89.2966  193.1974   27.2411 N   0  0  0  0  0  0  0  0  0  0  0  0
  -96.1520  191.4657   26.6960 C   0  0  0  0  0  0  0  0  0  0  0  0
  -92.4622  193.2669   28.1359 O   0  0  0  0  0  0  0  0  0  0  0  0
  -95.5128  191.8540   25.3620 C   0  0  1  0  0  0  0  0  0  0  0  0
  -96.1506  191.4687   24.3234 O   0  0  0  0  0  0  0  0  0  0  0  0
  -88.2640  191.4890   26.4229 O   0  0  0  0  0  0  0  0  0  0  0  0
  -91.4175  192.7953   26.1396 C   0  0  0  0  0  0  0  0  0  0  0  0
  -87.2401  192.7071   28.1421 N   0  0  0  0  0  0  0  0  0  0  0  0
  -89.4090  191.6142   25.6460 C   0  0  0  0  0  0  0  0  0  0  0  0
  -92.4800  193.0354   26.9497 C   0  0  0  0  0  0  0  0  0  0  0  0
  -93.6540  193.1813   26.5316 C   0  0  0  0  0  0  0  0  0  0  0  0
  1  9  4  0
  1 15  1  0
  1 17  4  0
  2  3  2  0
  2  6  1  0
  2  7  1  1
  4  9  4  0
  4 14  4  0
  4 16  1  0
  5  6  1  0
  5  7  1  0
  6  8  1  0
  8 12  1  0
  8 19  1  1
 12 10  1  1
 11 18  2  0
 12 13  1  0
 14 17  4  0
 15 18  1  0
 18 19  1  0
M  END
