mol_8
     RDKit          3D

 27 29  0  0  0  0  0  0  0  0999 V2000
   -1.2655   56.5255   39.7469 C   0  0  0  0  0  0  0  0  0  0  0  0
   -0.1072   56.4477   40.3404 N   0  0  0  0  0  0  0  0  0  0  0  0
    6.0864   52.1906   48.3471 O   0  0  0  0  0  0  0  0  0  0  0  0
   -0.1374   56.8907   41.6205 C   0  0  0  0  0  0  0  0  0  0  0  0
    2.9105   57.1538   43.5770 N   0  0  0  0  0  0  0  0  0  0  0  0
    6.3710   52.8006   47.2781 C   0  0  0  0  0  0  0  0  0  0  0  0
    4.7147   56.4379   48.9568 C   0  0  0  0  0  0  0  0  0  0  0  0
    0.9428   56.6441   42.3299 N   0  0  0  0  0  0  0  0  0  0  0  0
    4.6644   56.7408   47.4074 O   0  0  0  0  0  0  0  0  0  0  0  0
   -3.5576   57.1680   39.7299 F   0  0  0  0  0  0  0  0  0  0  0  0
   -1.1611   57.5241   42.2425 N   0  0  0  0  0  0  0  0  0  0  0  0
    3.2755   57.4330   44.9414 C   0  0  1  0  0  0  0  0  0  0  0  0
    6.1235   56.1397   49.3179 C   0  0  0  0  0  0  0  0  0  0  0  0
    2.3905   55.2386   44.7567 C   0  0  0  0  0  0  0  0  0  0  0  0
    1.6927   57.5717   42.9547 C   0  0  0  0  0  0  0  0  0  0  0  0
    7.1398   55.2606   48.0851 S   0  0  0  0  0  0  0  0  0  0  0  0
   -2.3315   57.5959   41.5641 N   0  0  0  0  0  0  0  0  0  0  0  0
    3.1119   55.6914   43.4711 C   0  0  0  0  0  0  0  0  0  0  0  0
    5.8682   54.1699   47.3201 C   0  0  1  0  0  0  0  0  0  0  0  0
   -2.4318   57.0908   40.3747 C   0  0  0  0  0  0  0  0  0  0  0  0
    2.7244   58.5721   45.5810 O   0  0  0  0  0  0  0  0  0  0  0  0
    1.3298   58.7561   43.0972 O   0  0  0  0  0  0  0  0  0  0  0  0
    3.9833   55.6455   46.7333 C   0  0  1  0  0  0  0  0  0  0  0  0
    6.9955   52.3562   46.3362 O   0  0  0  0  0  0  0  0  0  0  0  0
    2.9209   56.2040   45.7429 C   0  0  1  0  0  0  0  0  0  0  0  0
   -1.4164   56.0685   38.5520 N   0  0  0  0  0  0  0  0  0  0  0  0
    4.7897   54.4458   46.2195 C   0  0  0  0  0  0  0  0  0  0  0  0
  1  2  4  0
  1 20  4  0
  1 26  1  0
  2  4  4  0
  3  6  1  0
  4  8  1  0
  4 11  4  0
  5 12  1  0
  5 15  1  0
  5 18  1  0
 19  6  1  6
  6 24  1  0
  7  9  1  0
  7 13  1  0
  8 15  1  0
  9 23  1  0
 10 20  1  0
 11 17  4  0
 12 21  1  1
 12 25  1  0
 13 16  1  0
 14 18  1  0
 25 14  1  6
 15 22  2  0
 16 19  1  0
 17 20  4  0
 19 27  1  0
 23 25  1  0
 23 27  1  6
M  END
