mol_10
     RDKit          3D

 20 22  0  0  0  0  0  0  0  0999 V2000
   -3.1556   20.3107  -17.1654 C   0  0  2  0  0  0  0  0  0  0  0  0
   -4.6742   14.8558  -18.2757 C   0  0  2  0  0  0  0  0  0  0  0  0
   -3.3052   16.4489  -16.0389 O   0  0  0  0  0  0  0  0  0  0  0  0
   -4.1104   19.4597  -16.7595 N   0  0  0  0  0  0  0  0  0  0  0  0
   -5.2053   15.8109  -17.2882 C   0  0  0  0  0  0  0  0  0  0  0  0
   -3.3216   12.1581  -20.3928 C   0  0  0  0  0  0  0  0  0  0  0  0
   -1.4518   19.7649  -19.3204 N   0  0  0  0  0  0  0  0  0  0  0  0
   -5.9472   15.3733  -16.3672 O   0  0  0  0  0  0  0  0  0  0  0  0
   -2.3862   19.7341  -18.1829 N   0  0  0  0  0  0  0  0  0  0  0  0
   -3.6575   13.8013  -18.5167 N   0  0  0  0  0  0  0  0  0  0  0  0
   -1.7921   17.6912  -18.9071 C   0  0  0  0  0  0  0  0  0  0  0  0
   -2.9291   21.4985  -16.2032 C   0  0  0  0  0  0  0  0  0  0  0  0
   -1.1056   18.5493  -19.6919 N   0  0  0  0  0  0  0  0  0  0  0  0
   -3.6835   16.4420  -19.9020 O   0  0  0  0  0  0  0  0  0  0  0  0
   -4.5746   14.4160  -20.6247 O   0  0  0  0  0  0  0  0  0  0  0  0
   -4.1998   13.2346  -19.7636 C   0  0  1  0  0  0  0  0  0  0  0  0
   -4.2050   16.8541  -16.9230 C   0  0  0  0  0  0  0  0  0  0  0  0
   -4.7656   15.5117  -19.7625 C   0  0  1  0  0  0  0  0  0  0  0  0
   -3.7970   18.1782  -17.3473 C   0  0  2  0  0  0  0  0  0  0  0  0
   -2.6769   18.4823  -18.1784 C   0  0  0  0  0  0  0  0  0  0  0  0
  1  4  1  0
  1  9  1  0
  1 12  1  1
  2  5  1  1
  2 10  1  0
  2 18  1  0
  3 17  1  0
  4 19  1  0
  5  8  1  0
  5 17  1  0
 16  6  1  6
  7  9  1  0
  7 13  1  0
  9 20  1  0
 10 16  1  0
 11 13  1  0
 11 20  1  0
 18 14  1  1
 15 16  1  0
 15 18  1  0
 19 17  1  1
 19 20  1  0
M  END
