11
name:0,n_samples:50,mol_size:11,random_seed:29437,imol:0
C 104.533241272 115.242500305 107.303878784
C 103.607673645 115.688926697 106.140495300
C 102.121360779 113.685630798 106.904418945
O 104.143608093 115.825843811 108.548080444
C 105.978836060 115.620231628 106.982299805
C 101.840476990 114.531074524 104.728393555
C 102.455657959 114.727859497 105.990692139
O 106.785408020 115.587539673 108.144737244
O 103.370941162 117.092430115 106.168693542
C 101.188056946 113.190673828 104.732391357
C 101.060661316 112.895591736 106.232879639
11
name:0,n_samples:50,mol_size:11,random_seed:29437,imol:1
C 104.702781677 114.635017395 106.617156982
C 104.853263855 117.519042969 109.132118225
C 104.685485840 117.570198059 110.670852661
C 102.214271545 115.433273315 107.285247803
C 104.154655457 116.297836304 108.511505127
C 103.187995911 114.374084473 106.748878479
C 104.915023804 116.072006226 107.179809570
O 103.412483215 118.096656799 110.942802429
O 106.299163818 117.312561035 108.914459229
O 102.720039368 116.331878662 108.336761475
S 102.592773438 113.544769287 105.260169983
11
name:0,n_samples:50,mol_size:11,random_seed:29437,imol:2
C 101.832763672 114.291305542 105.981422424
C 104.184425354 114.098869324 106.226928711
O 104.052505493 117.020477295 109.611213684
C 102.953910828 114.649299622 106.912773132
S 105.614425659 116.124710083 107.656394958
C 100.971603394 113.123115540 106.325431824
C 105.352455139 116.516624451 109.277099609
C 101.455169678 115.229042053 104.921989441
O 101.824745178 116.655708313 107.687705994
C 102.970764160 116.102371216 107.413253784
C 104.163162231 116.882629395 106.939575195
11
name:0,n_samples:50,mol_size:11,random_seed:29437,imol:3
C 103.298751831 115.039222717 108.021736145
C 105.245971680 115.899711609 106.925521851
C 104.463302612 116.682632446 105.838638306
C 100.409500122 114.551376343 107.837638855
C 103.754371643 113.841117859 107.185173035
S 102.961837769 115.567977905 110.891906738
C 104.493858337 115.992393494 108.268409729
C 101.139007568 114.135726929 109.159622192
C 105.037338257 114.298637390 106.531585693
O 104.478057861 115.627265930 110.837394714
C 102.501945496 114.809501648 109.328872681
11
name:0,n_samples:50,mol_size:11,random_seed:29437,imol:4
C 104.162742615 114.978187561 108.369453430
C 100.727111816 115.862709045 108.827453613
C 105.645301819 115.130943298 108.098976135
Cl 106.622589111 115.679069519 109.454368591
C 100.587692261 114.453704834 108.146942139
C 103.988899231 113.500389099 106.385566711
O 106.297477722 114.803260803 107.019866943
O 101.586318970 116.687156677 108.021255493
C 101.966407776 113.898651123 107.849914551
O 103.282714844 112.753578186 105.502510071
C 103.194297791 114.518203735 107.232376099
11
name:0,n_samples:50,mol_size:11,random_seed:29437,imol:5
C 105.348739624 115.589187622 107.537551880
C 101.878524780 114.068992615 107.091285706
N 103.188697815 114.626533508 106.862373352
C 102.066734314 117.326583862 108.250389099
C 101.073013306 114.612579346 108.279953003
C 103.853424072 115.664466858 107.574516296
C 102.057632446 115.099464417 109.311882019
C 104.042839050 113.892089844 105.895286560
C 103.869430542 116.630172729 109.907852173
C 104.647819519 116.700752258 106.883705139
C 103.015716553 116.169326782 108.742301941
11
name:0,n_samples:50,mol_size:11,random_seed:29437,imol:6
C 102.757308960 114.923164368 108.800956726
O 106.280723572 115.296195984 108.442985535
O 102.705352783 113.347534180 105.324890137
C 104.452735901 117.654022217 110.384857178
C 103.843017578 115.547882080 109.222145081
O 101.687538147 115.263786316 109.422035217
C 103.424629211 116.599693298 110.254203796
C 105.325889587 115.944625854 109.025436401
C 102.694419861 112.994232178 106.661193848
C 102.004135132 113.976509094 107.756004333
C 105.596527100 117.219558716 109.609718323
11
name:0,n_samples:50,mol_size:11,random_seed:29437,imol:7
C 103.384407043 115.801391602 107.219352722
C 101.282562256 114.380958557 106.096939087
O 101.275390625 116.542617798 107.069923401
Cl 104.814155579 117.750839233 110.474189758
C 102.232749939 113.536590576 105.260696411
C 102.028945923 115.578460693 106.758964539
C 104.620185852 115.134140015 106.746223450
C 105.845993042 115.410934448 107.445930481
N 104.740974426 116.943672180 108.884925842
C 103.517074585 116.651809692 108.346008301
C 105.909172058 116.369842529 108.482002258
11
name:0,n_samples:50,mol_size:11,random_seed:29437,imol:8
C 102.454345703 116.330329895 108.726142883
C 101.520973206 114.563919067 107.403755188
C 102.783950806 115.405845642 107.604843140
C 100.540481567 115.069145203 108.487564087
O 99.699676514 113.770553589 106.123535156
C 100.707633972 114.829734802 106.132469177
C 100.951820374 116.554428101 108.592071533
C 104.654121399 116.947982788 109.600830078
O 105.049324036 114.353439331 107.553146362
C 104.016281128 114.674774170 107.352302551
O 103.522323608 117.309074402 108.744659424
11
name:0,n_samples:50,mol_size:11,random_seed:29437,imol:9
C 102.981346130 116.026016235 108.417999268
O 103.410720825 113.124725342 106.178863525
O 100.888977051 114.176879883 108.296806335
C 104.003776550 118.208351135 109.487152100
C 104.851905823 115.441268921 107.269981384
C 104.048721313 116.975509644 108.655723572
C 102.811950684 113.979736328 106.994659424
N 105.151596069 116.579467773 107.968353271
C 103.532760620 115.084373474 107.541778564
O 100.823593140 112.950683594 106.576255798
C 101.443443298 113.696105957 107.316528320
11
name:0,n_samples:50,mol_size:11,random_seed:29437,imol:10
F 105.582313538 116.457183838 109.006607056
O 103.109069824 114.688507080 104.818977356
N 101.742881775 115.067199707 107.307411194
C 103.021286011 115.105842590 107.031997681
N 104.978622437 114.847480774 105.898399353
C 103.674018860 114.872421265 105.863616943
C 101.650260925 115.302757263 108.586669922
C 105.712287903 115.256599426 106.931106567
C 103.746032715 115.460693359 108.116027832
C 105.043342590 115.707923889 108.057510376
C 102.853782654 115.549255371 109.182937622
11
name:0,n_samples:50,mol_size:11,random_seed:29437,imol:11
C 104.534881592 115.416503906 108.201454163
C 105.135795593 116.290458679 109.132423401
C 104.150428772 116.716934204 110.082984924
C 102.405258179 114.218627930 107.918968201
C 105.030998230 114.931320190 106.987937927
C 103.194763184 115.193283081 108.583396912
C 102.869285583 113.702041626 106.729660034
C 101.101295471 113.801872253 108.645225525
N 102.906944275 116.031898499 109.676551819
C 104.159118652 114.073593140 106.318222046
C 104.180381775 118.039268494 110.819931030
11
name:0,n_samples:50,mol_size:11,random_seed:29437,imol:12
C 103.871261597 115.595886230 107.680702209
C 105.527236938 116.957580566 108.558403015
C 103.282264709 113.758087158 106.156867981
C 102.488235474 115.927864075 107.785598755
O 105.539360046 115.195365906 106.676399231
C 101.570755005 115.024681091 107.265724182
C 101.965805054 113.915702820 106.512222290
O 104.456672668 117.556167603 109.331390381
C 105.007011414 116.413009644 107.243888855
Cl 100.753829956 112.800155640 106.087463379
C 104.227684021 114.657112122 106.595397949
11
name:0,n_samples:50,mol_size:11,random_seed:29437,imol:13
Cl 104.585365295 117.873939514 110.680252075
C 102.849533081 112.520515442 105.957504272
C 105.101196289 115.112503052 107.242691040
O 101.817169189 115.101928711 108.191436768
C 103.912231445 116.150169373 108.714424133
C 103.378837585 113.291145325 106.949165344
O 102.412734985 116.580955505 110.487243652
C 103.062271118 115.295219421 108.093627930
C 105.176460266 116.094451904 108.166358948
C 103.499671936 116.804435730 109.893348694
C 103.836051941 114.548461914 107.296531677
11
name:0,n_samples:50,mol_size:11,random_seed:29437,imol:14
C 103.955322266 115.729171753 107.693740845
N 101.121223450 114.513954163 109.812889099
O 105.209732056 114.477767944 106.270477295
C 103.209182739 113.541587830 106.898040771
C 102.901481628 115.827438354 108.565933228
C 104.131698608 114.575889587 106.907646179
O 102.667884827 116.973228455 109.318588257
C 102.159194946 113.620719910 107.822036743
O 100.303703308 114.228408813 112.024169922
C 102.038085938 114.673294067 108.742988586
C 101.203521729 114.848861694 111.256019592
11
name:0,n_samples:50,mol_size:11,random_seed:29437,imol:15
C 103.788574219 114.128189087 105.801185608
C 103.325988770 115.976364136 107.839996338
C 99.989456177 115.883377075 108.154579163
C 104.629653931 115.912963867 107.348037720
S 105.380241394 118.428871155 108.837333679
C 104.814109802 114.941474915 106.331962585
C 102.448219299 114.254257202 106.340232849
O 106.824333191 116.439628601 107.635848999
C 102.332534790 115.112869263 107.451652527
C 101.305274963 115.092399597 108.463615417
C 105.634071350 116.837127686 107.932037354
11
name:0,n_samples:50,mol_size:11,random_seed:29437,imol:16
C 105.421485901 115.153709412 108.586570740
C 103.958244324 115.051895142 108.182212830
C 101.239562988 115.859741211 107.415145874
C 102.123367310 114.846405029 106.756462097
C 103.524528503 115.401611328 106.833648682
C 101.673759460 115.751358032 108.868247986
C 103.130249023 115.827507019 109.143585205
C 105.574508667 114.667510986 105.691467285
C 104.092521667 114.832214355 105.535324097
O 101.322578430 114.420219421 109.339088440
C 103.741256714 117.175254822 109.578193665
11
name:0,n_samples:50,mol_size:11,random_seed:29437,imol:17
O 102.814468384 112.711418152 105.967002869
C 102.182411194 116.235839844 110.755935669
C 103.749542236 114.928436279 107.618301392
C 102.778526306 114.033775330 107.806877136
C 102.230316162 114.398948669 109.027908325
C 103.984481812 115.681632996 108.812339783
C 102.276618958 113.025474548 106.976249695
C 105.474708557 115.910591125 109.044631958
C 101.034149170 112.391128540 107.396278381
C 105.916885376 116.742675781 110.038780212
C 102.862625122 115.495307922 109.618064880
11
name:0,n_samples:50,mol_size:11,random_seed:29437,imol:18
F 106.315948486 115.584487915 106.169235229
C 100.936447144 112.810302734 106.876037598
S 103.465393066 115.693275452 109.987205505
C 101.908401489 115.491210938 107.807685852
C 101.455337524 113.791198730 105.844116211
C 102.047683716 115.177780151 106.324539185
C 104.989227295 115.648345947 106.330726624
C 105.056617737 116.574737549 109.947463989
C 103.252532959 116.010620117 108.231155396
C 104.609550476 116.089897156 107.730300903
O 105.563705444 116.449302673 108.617599487
11
name:0,n_samples:50,mol_size:11,random_seed:29437,imol:19
C 104.137809753 113.974563599 106.116012573
C 104.814628601 115.854637146 107.291091919
C 102.587928772 114.984130859 108.195930481
C 102.600410461 116.009284973 109.176765442
C 103.709167480 116.917098999 109.215232849
C 105.706840515 114.075485229 106.469390869
O 103.049438477 112.960739136 105.935913086
C 103.750030518 114.775611877 107.341804504
O 106.004051208 115.500343323 106.647399902
C 104.745361328 116.832206726 108.135391235
C 103.961997986 117.807281494 110.373786926
11
name:0,n_samples:50,mol_size:11,random_seed:29437,imol:20
C 103.220001221 115.107505798 106.214561462
O 101.621147156 112.478195190 105.826896667
O 101.093025208 114.204246521 107.225265503
C 101.787322998 114.950744629 106.627357483
C 105.373069763 116.533012390 110.126953125
C 103.410774231 116.139709473 108.544044495
C 101.452308655 112.810203552 107.186553955
C 104.254943848 116.303123474 109.632339478
O 106.311431885 116.721244812 110.607124329
C 104.139831543 115.716255188 107.296859741
S 102.073112488 117.281936646 108.610183716
11
name:0,n_samples:50,mol_size:11,random_seed:29437,imol:21
O 105.304130554 115.610824585 106.673950195
C 101.146606445 115.850990295 109.198219299
C 103.293708801 117.252540588 109.172424316
C 104.232955933 115.873542786 107.585289001
C 102.165420532 114.164779663 107.902328491
C 103.044624329 115.295372009 107.975250244
N 102.474098206 116.233970642 108.879981995
C 104.431816101 117.142730713 108.333244324
C 105.824661255 117.200126648 109.079734802
O 101.898513794 113.460655212 106.806564331
C 101.180702209 114.240478516 109.102180481
11
name:0,n_samples:50,mol_size:11,random_seed:29437,imol:22
O 102.650466919 112.389656067 106.108398438
C 105.183784485 114.827674866 106.779304504
O 102.159812927 113.922889709 109.729042053
C 105.338798523 116.795639038 108.016616821
C 103.432540894 113.259857178 106.509124756
C 104.838050842 113.528923035 106.109916687
O 105.945388794 115.988059998 106.986358643
C 104.191978455 115.982780457 108.619903564
C 103.154632568 114.015365601 107.724212646
C 104.424522400 114.660522461 108.055877686
O 102.781623840 113.133399963 108.819671631
11
name:0,n_samples:50,mol_size:11,random_seed:29437,imol:23
C 105.189857483 116.482856750 109.685211182
C 102.322128296 114.531776428 108.364448547
C 102.026130676 113.498451233 107.230262756
O 107.034080505 116.202766418 108.092147827
C 102.736465454 116.570480347 110.521453857
C 103.831665039 116.062835693 109.643722534
C 101.050292969 114.864700317 109.158828735
C 105.819442749 115.930335999 108.489883423
C 103.639305115 115.164733887 108.486862183
C 104.845954895 115.098846436 107.785018921
Cl 105.432846069 114.341590881 106.396980286
11
name:0,n_samples:50,mol_size:11,random_seed:29437,imol:24
C 102.497650146 115.663352966 108.969451904
C 105.106391907 116.623504639 108.823440552
C 104.633949280 115.770309448 107.858612061
C 101.600112915 113.253356934 104.970260620
C 103.372703552 115.192131042 107.944641113
C 101.729080200 114.023368835 106.256492615
C 103.101997375 113.978477478 106.965042114
C 104.351272583 116.928932190 109.958068848
C 102.989662170 116.560668945 110.014587402
O 104.973815918 117.517829895 110.883323669
C 100.414802551 113.805038452 107.208473206
11
name:0,n_samples:50,mol_size:11,random_seed:29437,imol:25
C 102.242012024 114.750610352 107.669921875
C 103.047897339 115.329086304 108.677299500
O 106.009155273 116.147857666 106.698249817
C 105.360229492 116.584617615 109.372192383
N 104.923202515 115.645271301 107.121574402
C 104.441062927 115.878211975 108.399284363
C 104.147918701 114.680923462 106.291694641
S 104.826812744 116.123321533 111.027984619
C 102.533546448 115.450942993 109.975601196
N 103.259941101 116.096923828 110.804595947
C 102.796836853 114.411521912 106.463668823
11
name:0,n_samples:50,mol_size:11,random_seed:29437,imol:26
C 102.842231750 116.530990601 110.853492737
C 103.534889221 117.479682922 109.919998169
C 103.281303406 114.024833679 106.150558472
C 104.056457520 115.880554199 108.070884705
C 102.282890320 114.445999146 107.072105408
C 105.046195984 115.346939087 107.152320862
O 106.326095581 117.446334839 110.198829651
C 102.703689575 115.376304626 108.064285278
N 104.442375183 116.929992676 108.905586243
C 105.784095764 117.629089355 108.888809204
C 104.646308899 114.391990662 106.177932739
11
name:0,n_samples:50,mol_size:11,random_seed:29437,imol:27
C 100.470695496 115.966850281 110.618713379
N 100.975242615 116.324699402 109.227447510
C 101.940994263 113.162017822 107.435050964
C 104.761421204 115.481689453 106.157325745
C 101.625076294 116.223678589 111.521476746
C 101.779800415 115.369949341 108.546455383
C 101.410545349 113.974952698 108.481239319
C 102.853866577 115.795280457 107.752151489
O 105.117683411 116.786277771 106.742172241
C 103.500114441 114.967910767 106.814529419
C 102.950950623 113.662284851 106.592376709
11
name:0,n_samples:50,mol_size:11,random_seed:29437,imol:28
C 105.217590332 115.761360168 108.168785095
O 106.703117371 116.483695984 109.965034485
N 103.143142700 116.041038513 106.723426819
N 106.128555298 114.862312317 107.475860596
C 105.520690918 116.572334290 109.327980042
C 102.091583252 114.229789734 107.437950134
C 103.864280701 115.465179443 107.770309448
N 103.230308533 114.313964844 108.242828369
O 104.687454224 117.672058105 109.645263672
C 102.045768738 115.275337219 106.552627563
C 100.942634583 113.169845581 107.648483276
11
name:0,n_samples:50,mol_size:11,random_seed:29437,imol:29
C 103.601531982 113.976539612 106.131660461
C 103.740806580 116.162216187 106.757812500
C 105.071495056 114.316001892 106.449638367
C 102.834938049 112.902069092 105.739662170
C 102.882011414 115.091987610 106.469589233
C 105.047584534 115.622459412 106.893867493
N 101.536674500 115.116744995 106.590713501
C 100.828125000 114.079002380 106.281066895
N 105.826927185 116.592384338 107.695739746
C 101.413688660 112.905151367 105.828910828
C 105.336387634 117.974670410 107.793693542
11
name:0,n_samples:50,mol_size:11,random_seed:29437,imol:30
C 104.859619141 117.990051270 108.649696350
N 102.776687622 116.317253113 107.936180115
O 105.349662781 114.719757080 105.858779907
C 104.159423828 114.927040100 106.508407593
C 101.730270386 115.460014343 107.854270935
C 103.985313416 116.040565491 107.424812317
O 100.674507141 115.775932312 108.480117798
C 103.077621460 114.026382446 106.331359863
O 105.083412170 116.834022522 107.736862183
O 103.170639038 113.041328430 105.494117737
C 101.864257812 114.282264709 107.061470032
11
name:0,n_samples:50,mol_size:11,random_seed:29437,imol:31
C 103.413131714 114.328399658 107.378860474
C 105.553749084 115.999664307 109.296974182
C 103.818008423 116.927940369 110.700271606
C 101.095664978 114.549850464 108.702491760
C 102.137290955 117.425735474 108.263656616
C 103.525970459 116.783065796 108.167449951
C 102.429450989 114.044815063 108.406143188
C 104.040466309 116.118049622 109.421722412
C 103.297813416 113.433021545 106.132789612
C 103.440322876 115.800239563 106.965164185
C 104.691329956 116.051696777 106.086791992
11
name:0,n_samples:50,mol_size:11,random_seed:29437,imol:32
C 104.527137756 116.786026001 108.750091553
C 100.731712341 113.720603943 106.234138489
C 104.943778992 115.127738953 107.023811340
O 104.973236084 117.699386597 109.579910278
C 103.587524414 115.041969299 106.781967163
C 101.844367981 113.674484253 105.192169189
N 102.758308411 115.740676880 107.562393188
C 105.418128967 116.006271362 108.015213013
C 103.181213379 116.607711792 108.526985168
O 100.780113220 114.952934265 106.918312073
C 103.198143005 114.223701477 105.571449280
11
name:0,n_samples:50,mol_size:11,random_seed:29437,imol:33
C 103.625999451 113.912483215 106.394180298
O 102.697402954 113.915008545 107.273071289
C 102.126518250 114.286033630 108.474014282
O 104.727752686 116.337417603 107.687728882
N 103.011230469 117.044311523 110.764694214
C 102.273170471 116.006202698 110.417007446
C 100.090499878 114.843574524 110.730598450
C 104.042755127 117.299957275 109.834182739
C 103.883018494 116.294540405 108.794769287
C 102.804275513 115.448356628 109.095748901
N 101.200447083 115.668853760 111.240364075
11
name:0,n_samples:50,mol_size:11,random_seed:29437,imol:34
C 106.271011353 115.009353638 107.601470947
C 103.367889404 117.439430237 108.035575867
C 102.544494629 115.336982727 107.152282715
C 102.295555115 116.618827820 107.659996033
O 104.126197815 113.819061279 106.238395691
O 105.715965271 117.709075928 108.451148987
C 103.853607178 114.891464233 106.993537903
C 106.980865479 115.333160400 108.877914429
C 104.912773132 115.648834229 107.588562012
C 104.681823730 116.946014404 108.044769287
O 101.504829407 114.570716858 106.792968750
11
name:0,n_samples:50,mol_size:11,random_seed:29437,imol:35
C 103.059249878 115.616813660 108.501098633
O 101.262550354 113.024330139 106.828437805
C 104.102455139 115.156837463 107.583518982
C 100.681976318 115.390144348 108.917274475
C 102.099189758 114.080581665 107.234481812
C 102.017799377 116.944877625 110.213470459
C 103.442344666 114.228485107 106.776878357
C 103.172538757 116.533821106 109.534194946
C 100.772857666 116.408393860 109.876815796
O 104.426216125 116.999984741 109.807235718
C 101.849830627 114.992607117 108.236923218
11
name:0,n_samples:50,mol_size:11,random_seed:29437,imol:36
C 100.671791077 115.546829224 108.414062500
C 102.818756104 115.146644592 106.615112305
C 104.182197571 117.690979004 109.153030396
C 104.062774658 116.815475464 107.882453918
C 105.060256958 115.645072937 106.101882935
C 103.920608521 114.963424683 105.713325500
C 101.686874390 116.524261475 108.358032227
N 100.750869751 114.425926208 107.655929565
C 105.151046753 116.563209534 107.134124756
C 102.840461731 116.245590210 107.590927124
C 101.735153198 114.200508118 106.760154724
11
name:0,n_samples:50,mol_size:11,random_seed:29437,imol:37
C 103.609786987 115.074645996 106.472068787
C 104.276535034 116.246398926 108.502311707
C 104.658370972 115.673439026 107.267143250
C 102.249961853 115.070968628 106.877655029
O 101.366020203 114.347366333 106.148460388
C 101.848411560 113.526580811 104.986366272
C 105.396453857 116.541076660 109.555839539
C 101.868888855 115.807022095 108.106216431
C 102.831321716 116.556182861 108.856941223
O 102.493644714 117.555404663 109.802742004
C 101.685317993 114.449348450 103.739105225
11
name:0,n_samples:50,mol_size:11,random_seed:29437,imol:38
C 103.308425903 115.606254578 109.871070862
C 102.653160095 114.553199768 107.822013855
C 103.934661865 114.853385925 107.555397034
N 106.716262817 115.675788879 108.190658569
C 104.992195129 114.894065857 106.578804016
C 105.818679810 115.822654724 109.172622681
C 104.495979309 115.546981812 108.942489624
O 106.187561035 116.127296448 110.245208740
C 102.239303589 115.001502991 109.133697510
S 101.712837219 113.471252441 106.718910217
O 103.265396118 116.016349792 111.154678345
11
name:0,n_samples:50,mol_size:11,random_seed:29437,imol:39
C 105.997146606 116.006011963 108.031669617
C 102.851974487 114.146293640 106.336318970
O 107.279266357 116.218772888 108.329307556
O 101.269996643 114.225646973 108.245468140
O 102.461601257 115.796737671 110.454010010
C 105.087257385 117.208877563 108.221817017
C 101.472892761 114.261207581 106.889175415
C 104.401359558 116.951744080 109.590614319
O 103.422851562 115.110694885 108.477592468
C 103.683197021 114.770553589 107.350418091
C 103.401329041 115.896919250 109.545608521
11
name:0,n_samples:50,mol_size:11,random_seed:29437,imol:40
C 104.761634827 115.864814758 107.882385254
C 101.365501404 113.484825134 104.858634949
C 100.327896118 112.459022522 104.354942322
C 105.831924438 116.057998657 108.896400452
O 104.984626770 114.195343018 106.185928345
C 102.343437195 112.903930664 105.916168213
C 101.963226318 114.168708801 106.735496521
C 104.307167053 115.013877869 106.833000183
N 103.010971069 115.219184875 106.444244385
O 105.692710876 117.234611511 109.651367188
C 100.791877747 114.420967102 105.845001221
11
name:0,n_samples:50,mol_size:11,random_seed:29437,imol:41
N 104.300285339 115.336914062 107.618156433
O 101.779975891 113.721282959 106.192436218
O 100.842315674 115.214836121 108.823532104
O 103.820457458 117.153503418 108.916992188
O 102.660270691 113.673171997 107.285766602
C 102.555961609 116.743087769 109.058197021
C 104.692497253 116.495506287 108.190971375
C 102.151481628 115.556907654 108.501953125
C 103.041564941 114.820037842 107.759780884
C 100.468605042 116.335456848 109.497680664
N 101.424194336 117.241874695 109.679000854
11
name:0,n_samples:50,mol_size:11,random_seed:29437,imol:42
O 103.857231140 117.605285645 108.754547119
C 103.278572083 115.307357788 106.363487244
C 101.996421814 115.758979797 106.497566223
C 105.443870544 115.680564880 107.602783203
C 101.932785034 116.595008850 107.599441528
C 106.314163208 114.626510620 106.990333557
C 103.185958862 116.708061218 108.201156616
C 103.348495483 116.941345215 109.662841797
O 103.746864319 114.307365417 105.760856628
C 105.883544922 115.765586853 108.996917725
C 104.012344360 115.870277405 107.344429016
11
name:0,n_samples:50,mol_size:11,random_seed:29437,imol:43
O 105.053001404 116.360374451 109.874923706
N 103.129859924 114.147544861 107.339561462
C 100.799827576 112.295379639 107.135360718
C 102.665679932 115.505485535 110.038352966
C 103.987419128 115.250404358 107.713920593
C 100.299354553 114.414840698 108.476005554
C 103.805473328 115.741622925 109.230415344
C 106.045700073 116.285316467 109.121833801
C 100.635261536 113.892196655 107.094902039
C 101.944915771 114.357055664 106.376945496
S 105.790481567 115.167640686 107.680358887
11
name:0,n_samples:50,mol_size:11,random_seed:29437,imol:44
C 105.594688416 116.158920288 109.267326355
C 103.436370850 115.178672791 109.110198975
C 104.394157410 115.806114197 109.892578125
O 106.503524780 116.857749939 109.932373047
C 104.928459167 115.216987610 107.157546997
C 103.652320862 114.910369873 107.718055725
N 101.182510376 112.568672180 106.268630981
N 105.855819702 115.842338562 107.981544495
C 99.975486755 113.339653015 106.491081238
C 102.561218262 113.066749573 106.397140503
O 102.625160217 114.457641602 107.004356384
11
name:0,n_samples:50,mol_size:11,random_seed:29437,imol:45
N 102.983917236 116.541442871 109.362754822
C 101.473899841 115.087097168 107.814559937
C 102.726135254 115.771156311 108.244445801
O 101.049301147 112.911361694 106.537887573
C 103.751884460 115.290184021 107.317092896
C 103.172088623 114.301887512 106.398712158
C 101.819305420 114.100791931 106.808860779
C 105.157203674 115.740020752 107.666412354
C 104.241409302 116.857139587 109.691215515
O 106.120338440 115.461723328 106.881935120
C 105.332885742 116.457061768 108.861396790
11
name:0,n_samples:50,mol_size:11,random_seed:29437,imol:46
O 105.252670288 116.028404236 109.963447571
P 103.237487793 115.716857910 107.653633118
O 103.378387451 117.158920288 107.219009399
C 102.500793457 114.737777710 106.371253967
O 100.281860352 115.229904175 106.449928284
O 106.514785767 114.769821167 108.696266174
N 104.619476318 115.343101501 107.879943848
O 100.854705811 113.293037415 107.296531677
C 101.116882324 114.368110657 106.702964783
C 105.434379578 115.381393433 108.856475830
O 102.039115906 115.471595764 108.777496338
11
name:0,n_samples:50,mol_size:11,random_seed:29437,imol:47
C 104.870765686 117.373916626 107.739242554
C 102.747512817 115.968879700 105.439437866
C 105.218902588 117.926139832 108.955818176
C 103.855613708 116.223266602 110.047637939
O 101.820755005 113.614456177 106.744880676
C 104.082084656 116.258201599 107.695121765
C 101.930183411 114.880958557 104.658264160
C 103.507431030 115.626762390 108.826950073
C 104.792167664 117.283531189 110.134521484
C 102.028633118 113.485244751 105.327590942
C 103.853004456 115.415412903 106.404953003
11
name:0,n_samples:50,mol_size:11,random_seed:29437,imol:48
C 101.949615479 115.849555969 107.621757507
C 102.978843689 115.238830566 106.863838196
C 101.580055237 114.961647034 105.090713501
N 102.213027954 116.400245667 108.865226746
N 104.211410522 115.172454834 107.387321472
C 103.833435059 117.106880188 110.616905212
C 104.503494263 115.721221924 108.559700012
C 100.684181213 115.953674316 107.041893005
C 103.496437073 116.380218506 109.295776367
N 102.798645020 114.793731689 105.600997925
N 100.554298401 115.537521362 105.768463135
11
name:0,n_samples:50,mol_size:11,random_seed:29437,imol:49
C 102.801200867 118.032791138 110.726448059
C 101.770324707 115.027389526 109.220108032
N 104.017326355 116.441192627 109.234336853
C 104.809188843 115.076843262 107.266654968
C 102.817115784 114.554527283 108.426689148
O 104.247314453 114.027870178 106.577705383
C 102.862670898 116.889686584 109.779327393
C 103.972961426 115.427268982 108.349571228
C 102.917663574 113.668716431 107.267379761
O 101.306327820 114.448600769 110.344047546
O 101.594802856 116.460746765 109.355583191
