10
name:0,n_samples:50,mol_size:10,random_seed:23294,imol:0
C 101.903160095 117.021713257 108.296005249
C 102.763992310 113.942390442 107.054702759
C 101.447898865 114.551918030 107.600074768
C 101.913444519 115.565589905 108.688087463
O 105.274177551 117.383232117 109.883026123
C 104.260887146 116.945075989 109.247390747
C 103.788673401 115.034080505 106.817840576
C 103.291229248 117.671409607 108.418632507
C 103.056167603 113.827117920 104.574760437
C 102.671951294 113.039421082 105.829414368
10
name:0,n_samples:50,mol_size:10,random_seed:23294,imol:1
C 102.546974182 113.451721191 106.024139404
C 105.409919739 115.715339661 107.452705383
C 102.863510132 115.111251831 108.009681702
C 106.533439636 116.052238464 109.648071289
C 107.787536621 116.228836060 110.473678589
C 101.986793518 114.010650635 107.352561951
N 103.024345398 114.424972534 105.025550842
C 105.327163696 116.410720825 110.226448059
C 104.328445435 114.714660645 107.810180664
C 106.660400391 115.473754883 108.285621643
10
name:0,n_samples:50,mol_size:10,random_seed:23294,imol:2
C 103.070075989 114.900138855 108.440795898
C 101.663299561 113.866920471 106.929100037
N 101.775665283 114.477180481 108.254402161
C 103.759948730 115.372550964 109.512649536
O 100.772216797 113.147583008 106.559326172
C 105.147811890 114.856506348 107.130737305
C 105.189155579 115.631683350 109.501487732
C 105.874557495 115.414276123 108.291679382
C 103.795013428 114.604026794 107.162467957
O 102.881958008 114.141571045 106.310241699
10
name:0,n_samples:50,mol_size:10,random_seed:23294,imol:3
C 103.444465637 115.447692871 108.870155334
C 100.435203552 113.552444458 106.572494507
C 104.974494934 117.340026855 108.459846497
C 101.177627563 112.880645752 107.761360168
C 101.603340149 113.757751465 105.555961609
C 102.365829468 114.984878540 108.009384155
C 104.508895874 116.012214661 107.835296631
C 102.976325989 113.275848389 106.121292114
C 105.869682312 116.885475159 109.632369995
C 102.616859436 113.464752197 107.649948120
10
name:0,n_samples:50,mol_size:10,random_seed:23294,imol:4
C 105.146293640 115.960365295 107.488670349
C 101.498420715 117.090873718 107.611984253
O 103.730712891 114.091423035 105.629913330
C 102.885711670 117.201271057 107.647201538
C 105.721366882 117.015739441 108.317817688
C 103.676605225 116.148658752 107.130821228
C 99.477081299 115.553421021 107.556999207
C 100.883468628 115.926269531 107.171363831
C 101.629837036 115.022895813 106.457168579
C 103.038200378 115.119903564 106.381095886
10
name:0,n_samples:50,mol_size:10,random_seed:23294,imol:5
C 101.080398560 115.186622620 107.625854492
C 103.047584534 114.524414062 106.280647278
C 103.447669983 115.545173645 108.498497009
C 104.824005127 115.624748230 108.187988281
C 104.446487427 114.638000488 105.951637268
O 103.122772217 116.030563354 109.753494263
Br 106.089981079 116.483131409 109.480270386
C 105.287597656 115.167053223 106.937042236
C 101.797828674 115.613838196 110.282356262
N 102.537300110 115.091979980 107.483802795
10
name:0,n_samples:50,mol_size:10,random_seed:23294,imol:6
O 105.072784424 116.434051514 108.449707031
C 103.862449646 114.864685059 107.140930176
C 103.836425781 115.763351440 108.179931641
C 101.482711792 115.301170349 108.715164185
C 102.635375977 114.109619141 106.949546814
C 103.880447388 117.347076416 110.748008728
O 104.980102539 114.715293884 106.345802307
C 101.453651428 114.366172791 107.673851013
N 102.713676453 116.881065369 110.030296326
C 102.691635132 115.993614197 108.998191833
10
name:0,n_samples:50,mol_size:10,random_seed:23294,imol:7
C 104.447120667 116.175659180 107.401107788
C 102.820846558 113.869773865 106.525344849
C 103.004425049 116.335952759 109.230583191
C 104.975883484 115.243896484 106.402015686
C 105.389312744 116.459220886 109.558441162
C 104.145477295 114.253311157 105.861946106
C 104.136558533 116.312942505 110.095588684
C 105.411743164 116.695587158 108.168395996
O 106.597335815 116.407035828 110.211334229
C 103.116348267 116.307502747 107.849571228
10
name:0,n_samples:50,mol_size:10,random_seed:23294,imol:8
C 105.424194336 115.130531311 106.223136902
N 105.731071472 116.292846680 108.361808777
C 104.332084656 115.940704346 108.689613342
C 106.209320068 115.834716797 107.161102295
C 104.028671265 114.918121338 106.480667114
O 103.167335510 114.263214111 105.627075195
N 103.150024414 116.053726196 109.226051331
N 102.344970703 115.568077087 108.260734558
N 104.180068970 115.978981018 110.016990662
C 103.556877136 115.452804565 107.667846680
10
name:0,n_samples:50,mol_size:10,random_seed:23294,imol:9
C 104.106941223 116.602859497 108.637191772
C 103.668251038 113.237449646 105.861480713
C 106.597434998 116.451026917 108.821411133
C 105.304954529 115.954795837 108.259918213
O 102.937065125 116.052597046 108.181343079
O 107.568984985 115.673675537 109.240730286
C 102.919891357 114.876144409 107.619628906
O 102.209602356 113.114402771 105.750526428
C 105.293876648 114.865371704 107.309738159
C 104.057014465 114.352256775 106.847801208
10
name:0,n_samples:50,mol_size:10,random_seed:23294,imol:10
N 104.859375000 116.019538879 108.327056885
C 100.554206848 113.670143127 105.914947510
C 102.951072693 113.763305664 106.462982178
C 104.316009521 117.524566650 110.306823730
C 104.360069275 115.514816284 107.114707947
C 103.934074402 116.905990601 109.032569885
C 102.925697327 115.221282959 106.849098206
O 101.897758484 115.867401123 107.279800415
O 101.812217712 113.068313599 106.211654663
O 105.249755859 115.180702209 106.113952637
10
name:0,n_samples:50,mol_size:10,random_seed:23294,imol:11
C 103.969642639 117.006164551 108.716285706
C 102.789245605 112.801368713 106.317649841
C 102.982437134 116.828071594 107.614410400
C 103.475654602 114.422836304 107.907165527
C 102.342063904 115.135086060 105.952354431
C 102.949325562 115.449958801 107.154006958
O 104.548194885 116.120544434 109.339416504
O 104.245513916 118.061668396 109.060577393
C 103.402023315 113.125404358 107.512084961
C 102.255638123 113.817291260 105.561981201
10
name:0,n_samples:50,mol_size:10,random_seed:23294,imol:12
C 104.407760620 116.682556152 108.597290039
C 106.775161743 115.800315857 108.766822815
C 105.104454041 115.104301453 106.953559875
O 103.706680298 115.122940063 106.882850647
O 107.563499451 115.353507996 109.479843140
C 101.712722778 115.991630554 108.074722290
C 105.551361084 115.917350769 108.024940491
Cl 106.114219666 114.290298462 105.957084656
C 103.256072998 115.845298767 108.117195129
O 101.178779602 114.869392395 107.313140869
10
name:0,n_samples:50,mol_size:10,random_seed:23294,imol:13
C 100.826599121 115.452476501 108.523132324
C 102.576438904 116.889511108 109.425643921
Cl 104.000740051 114.577468872 106.268951416
C 103.496315002 116.361518860 108.506256104
C 101.300376892 116.375839233 109.428695679
Cl 100.861930847 113.852592468 106.554405212
N 104.805595398 116.861846924 108.778884888
O 105.935699463 116.240127563 108.256813049
C 101.666564941 114.970123291 107.568389893
C 103.042930603 115.370346069 107.554603577
10
name:0,n_samples:50,mol_size:10,random_seed:23294,imol:14
C 104.130729675 115.852554321 109.421936035
C 102.282341003 116.565879822 108.938140869
S 106.205345154 115.425559998 107.820014954
N 105.087310791 115.087882996 106.808181763
C 103.719833374 115.125549316 107.128662109
C 103.074188232 116.614242554 110.200820923
O 101.097038269 116.915382385 108.779060364
Cl 102.782318115 114.165306091 105.973281860
C 105.418754578 116.545005798 109.049499512
C 103.229873657 115.875000000 108.245834351
10
name:0,n_samples:50,mol_size:10,random_seed:23294,imol:15
C 103.499763489 115.294960022 107.806098938
C 102.792449951 113.099822998 106.545410156
C 104.123146057 117.777130127 109.238815308
C 105.047203064 116.746231079 109.135047913
C 104.898841858 115.510643005 108.352050781
O 104.378555298 114.629936218 105.698265076
C 103.588348389 114.355674744 106.644126892
C 101.766265869 112.820304871 107.612487793
C 106.273750305 116.806938171 110.075202942
C 102.604995728 112.649650574 105.123817444
10
name:0,n_samples:50,mol_size:10,random_seed:23294,imol:16
C 105.301918030 115.446334839 107.867301941
C 100.527091980 115.046882629 109.164382935
S 102.033142090 114.366439819 106.602325439
C 102.785270691 115.207000732 108.084007263
N 102.639556885 115.989395142 110.115684509
N 106.551376343 115.554306030 108.510246277
C 104.015945435 115.644363403 108.519042969
O 105.347526550 114.965759277 106.525108337
C 103.944023132 116.170814514 109.791290283
C 101.962471008 115.432426453 109.115821838
10
name:0,n_samples:50,mol_size:10,random_seed:23294,imol:17
O 100.380950928 114.153701782 107.123077393
C 102.964408875 116.406776428 108.370513916
C 102.707466125 114.219696045 106.293258667
C 101.310356140 113.078514099 104.638153076
C 102.311264038 112.837257385 105.771224976
O 103.266227722 116.676849365 109.745185852
C 104.193084717 116.045776367 107.680351257
C 101.574180603 114.546485901 107.234893799
C 102.036659241 115.196159363 108.451751709
O 105.409103394 116.362503052 108.284530640
10
name:0,n_samples:50,mol_size:10,random_seed:23294,imol:18
C 103.084472656 114.506828308 106.541580200
C 102.253936768 113.309379578 104.429611206
C 104.286750793 115.829132080 107.932914734
C 104.798332214 117.400451660 111.301208496
C 102.007644653 116.153694153 107.996337891
C 104.077354431 116.736602783 110.151878357
C 103.319915771 115.303436279 105.277130127
C 102.132659912 114.445571899 105.411476135
C 103.049972534 115.522521973 107.599128723
C 104.729454041 116.982620239 108.774269104
10
name:0,n_samples:50,mol_size:10,random_seed:23294,imol:19
C 104.074371338 114.980545044 106.872764587
O 103.798782349 117.105651855 109.874572754
C 105.128791809 115.333213806 106.399986267
C 102.919326782 114.407188416 107.145240784
C 100.800086975 114.091896057 108.755523682
C 101.993843079 115.618576050 110.602897644
C 103.049942017 116.388076782 109.951148987
C 101.349288940 114.776268005 109.734771729
C 101.911590576 113.588401794 106.471450806
C 100.752693176 113.538673401 107.488052368
10
name:0,n_samples:50,mol_size:10,random_seed:23294,imol:20
C 104.993759155 116.202285767 109.163177490
N 104.320846558 114.353538513 106.060264587
C 103.043167114 114.003524780 105.744758606
C 104.225700378 115.072052002 107.222740173
C 102.619514465 115.831901550 108.982414246
N 103.699081421 116.300498962 109.687042236
C 102.871749878 115.173370361 107.720352173
N 106.034347534 116.583717346 109.968551636
N 102.197181702 114.518791199 106.742813110
C 105.228851318 115.643775940 107.915580750
10
name:0,n_samples:50,mol_size:10,random_seed:23294,imol:21
N 104.467346191 117.142585754 109.667503357
C 103.476242065 117.389282227 110.718498230
C 102.355789185 114.061157227 107.336692810
C 104.460487366 115.463989258 107.567970276
C 102.516677856 115.671882629 109.155822754
C 103.889297485 116.168685913 108.818504333
C 101.638328552 114.760398865 108.457199097
C 103.655448914 114.469078064 106.899734497
S 102.106468201 116.356849670 110.701538086
C 101.732566833 112.816299438 106.737869263
10
name:0,n_samples:50,mol_size:10,random_seed:23294,imol:22
C 102.391288757 112.772033691 106.916999817
C 101.613868713 116.602066040 110.092788696
C 104.218574524 114.521667480 107.334350586
Cl 104.657691956 117.133750916 110.701499939
S 105.132263184 115.651184082 108.329093933
C 104.069122314 116.006500244 109.529998779
C 103.498275757 112.373527527 105.861297607
C 102.938224792 113.984519958 107.637405396
C 102.149452209 114.545860291 108.622596741
C 102.600280762 115.672142029 109.399055481
10
name:0,n_samples:50,mol_size:10,random_seed:23294,imol:23
C 105.699119568 114.858848572 106.802581787
C 103.190559387 115.086746216 107.905441284
O 101.960784912 116.092330933 109.573539734
C 104.978874207 116.133293152 109.330268860
C 105.132461548 116.259757996 107.029502869
O 103.013023376 114.381904602 106.793304443
C 106.400009155 116.592239380 109.074996948
C 106.283859253 117.091232300 107.620620728
N 104.090957642 116.163558960 108.067657471
C 101.804122925 115.255599976 108.484405518
10
name:0,n_samples:50,mol_size:10,random_seed:23294,imol:24
C 104.153480530 117.018531799 110.404403687
C 103.463302612 116.093872070 108.277008057
C 105.666007996 117.096084595 108.487266541
C 103.161247253 116.405937195 109.596931458
C 102.538017273 115.273864746 107.503166199
C 103.205017090 114.639122009 106.258445740
C 104.672134399 116.502166748 107.698654175
O 101.397506714 114.809364319 108.000587463
C 102.168769836 113.830390930 105.462211609
C 105.423782349 117.360191345 109.865402222
10
name:0,n_samples:50,mol_size:10,random_seed:23294,imol:25
C 100.822105408 113.970474243 107.779319763
C 104.704658508 116.437873840 109.015533447
O 103.550064087 114.502464294 106.238327026
C 102.743156433 115.549789429 108.380439758
N 106.348365784 116.101531982 110.444786072
C 103.703453064 115.191818237 107.293029785
C 104.996719360 115.737525940 107.689765930
C 101.371223450 115.062835693 108.642936707
N 105.699058533 117.029090881 109.661895752
N 103.339729309 116.405456543 109.347747803
10
name:0,n_samples:50,mol_size:10,random_seed:23294,imol:26
C 107.075065613 115.796318054 109.967826843
C 105.891700745 115.364830017 109.092453003
C 103.103073120 113.504226685 106.439758301
C 105.388130188 114.830551147 106.475723267
C 102.197471619 115.269439697 109.889968872
C 102.561592102 112.369926453 107.458335876
C 104.662216187 113.417076111 106.180618286
N 104.658790588 115.526405334 109.623809814
C 103.488212585 114.658111572 109.350173950
C 106.245292664 114.674598694 107.761497498
10
name:0,n_samples:50,mol_size:10,random_seed:23294,imol:27
C 104.667671204 116.033462524 108.450706482
O 101.392562866 115.012390137 106.532455444
S 103.443527222 116.709121704 109.539688110
N 105.930801392 116.118057251 108.984024048
C 102.071098328 113.134201050 105.342750549
C 102.582542419 115.164695740 107.336975098
C 104.127250671 115.315559387 107.166557312
C 100.914588928 117.016845703 108.364044189
C 100.908035278 113.962768555 105.708061218
C 102.161865234 116.066223145 108.451835632
10
name:0,n_samples:50,mol_size:10,random_seed:23294,imol:28
C 103.602928162 115.540863037 107.614898682
C 102.523437500 116.281768799 108.176750183
C 101.873512268 114.167655945 106.269416809
N 101.236274719 115.986351013 107.711669922
C 100.949440002 115.020706177 106.866333008
C 102.722984314 117.254127502 109.218856812
C 104.929473877 115.841209412 108.064437866
S 103.437225342 114.197227478 106.546012878
C 104.016593933 117.450561523 109.686889648
C 105.112869263 116.795860291 109.084548950
10
name:0,n_samples:50,mol_size:10,random_seed:23294,imol:29
O 105.419609070 116.551170349 109.805877686
C 104.615890503 115.808769226 107.729537964
C 103.216102600 115.745079041 107.019592285
C 103.293724060 114.515098572 106.020210266
O 101.218109131 117.153091431 107.516609192
O 104.177528381 113.503402710 106.445983887
N 101.120269775 116.122230530 106.187637329
C 104.630432129 115.546508789 109.135490417
O 105.753494263 115.851295471 107.045280457
C 101.997764587 116.408027649 107.052398682
10
name:0,n_samples:50,mol_size:10,random_seed:23294,imol:30
N 105.057083130 115.891220093 108.805641174
C 101.677703857 115.424148560 106.066780090
C 103.705451965 117.606758118 109.678977966
C 102.889572144 114.508422852 106.144378662
C 104.931091309 116.729148865 109.947296143
C 103.277099609 117.317092896 108.253067017
C 103.772872925 115.877944946 108.107139587
N 103.985610962 115.304130554 106.762893677
C 102.834304810 114.997535706 108.919136047
C 105.144989014 114.368896484 106.739860535
10
name:0,n_samples:50,mol_size:10,random_seed:23294,imol:31
C 105.038597107 114.718467712 107.431892395
O 104.582695007 114.241691589 105.137458801
C 102.931419373 113.798835754 106.744781494
O 105.325370789 115.385475159 109.724845886
N 101.144592285 114.095428467 108.159217834
C 104.214630127 114.218582153 106.438819885
C 104.524177551 115.016471863 108.658599854
C 102.378952026 114.248596191 107.947669983
N 103.178794861 114.967582703 108.801300049
O 102.647262573 115.740859985 109.786384583
10
name:0,n_samples:50,mol_size:10,random_seed:23294,imol:32
C 105.244239807 115.893791199 109.232887268
C 102.659988403 116.019683838 108.245315552
C 102.985664368 112.883018494 105.981788635
C 101.158668518 115.940696716 107.959960938
C 103.096580505 116.940925598 109.181686401
C 104.846794128 115.036499023 108.187629700
F 106.375236511 115.701820374 109.889129639
C 103.054153442 114.040596008 106.769111633
C 104.402450562 116.888824463 109.661308289
C 103.538085938 115.065551758 107.710250854
10
name:0,n_samples:50,mol_size:10,random_seed:23294,imol:33
C 103.534774780 114.915641785 108.241973877
C 103.496917725 115.951126099 110.222839355
C 102.642646790 113.677871704 106.360870361
C 101.356254578 113.821617126 106.913780212
C 102.218940735 114.938423157 108.672050476
C 103.759460449 114.241813660 107.030517578
C 105.754791260 116.039871216 109.124916077
N 102.235992432 115.561714172 109.875442505
C 104.325485229 115.593887329 109.174545288
N 101.149703979 114.422470093 108.079765320
10
name:0,n_samples:50,mol_size:10,random_seed:23294,imol:34
O 105.610145569 117.409454346 107.837051392
O 104.923217773 117.966712952 109.837326050
C 101.916847229 114.896545410 107.909881592
C 102.250755310 113.798866272 106.915939331
C 103.590370178 114.835121155 106.280014038
C 102.327125549 116.772659302 109.417213440
C 103.502922058 116.714225769 108.503189087
C 104.737579346 117.464279175 108.750808716
C 101.426742554 115.600540161 108.977058411
C 103.303054810 115.756813049 107.382377625
10
name:0,n_samples:50,mol_size:10,random_seed:23294,imol:35
C 103.239021301 115.115173340 106.633956909
O 102.811317444 114.376411438 105.697273254
O 105.043785095 116.858741760 110.040985107
C 105.288154602 115.857589722 107.939285278
C 103.002120972 116.414009094 108.723419189
C 104.364685059 116.340026855 108.942916870
C 102.458709717 115.864807129 107.583366394
C 104.665588379 115.201950073 106.785461426
N 106.611709595 116.005752563 108.231155396
C 100.964782715 116.056549072 107.335716248
10
name:0,n_samples:50,mol_size:10,random_seed:23294,imol:36
O 104.721969604 117.063156128 110.022552490
O 102.597839355 115.528350830 109.302742004
C 103.565513611 115.103271484 107.242012024
C 102.301979065 114.392761230 105.362525940
C 103.612274170 115.665596008 108.499977112
C 105.807327271 115.856437683 106.824645996
C 104.674346924 115.156158447 106.425102234
O 102.330345154 114.530006409 106.800277710
C 105.855346680 116.498870850 108.058792114
C 104.741973877 116.424583435 108.888771057
10
name:0,n_samples:50,mol_size:10,random_seed:23294,imol:37
Cl 104.846580505 114.082901001 106.963371277
N 103.601348877 116.288475037 108.341247559
C 100.058319092 114.522262573 105.971206665
C 100.216598511 115.889099121 106.606925964
C 101.517959595 116.190139771 107.287544250
O 99.165588379 116.616928101 106.446372986
S 101.805473328 113.820220947 105.948211670
C 103.704544067 115.153327942 107.447143555
C 102.169914246 116.939476013 108.185905457
C 102.324920654 115.111488342 106.880485535
10
name:0,n_samples:50,mol_size:10,random_seed:23294,imol:38
C 102.954048157 115.949752808 105.069160461
O 106.168830872 116.496971130 110.018417358
C 101.911827087 114.798843384 105.240585327
C 103.496719360 116.436233521 106.435829163
O 105.623481750 115.319129944 107.848930359
O 102.361206055 113.673828125 104.859207153
C 104.732444763 116.249771118 109.982284546
C 104.473320007 115.724281311 108.591316223
O 100.789085388 115.028678894 105.674713135
C 103.169898987 115.700141907 107.760391235
10
name:0,n_samples:50,mol_size:10,random_seed:23294,imol:39
C 104.234115601 116.226547241 109.832038879
C 104.909210205 114.939422607 107.940467834
O 101.899276733 116.167556763 110.475196838
C 102.894409180 115.733192444 109.624778748
C 103.099662781 113.508537292 106.716445923
C 101.765739441 113.218864441 107.061950684
C 103.644561768 114.443618774 107.714607239
C 105.246337891 115.826637268 109.064094543
C 102.631881714 114.805915833 108.614837646
C 101.474739075 114.000358582 108.251693726
10
name:0,n_samples:50,mol_size:10,random_seed:23294,imol:40
C 102.428016663 113.507034302 105.642074585
O 103.361106873 116.972679138 110.601371765
C 101.136131287 113.510368347 109.339759827
C 103.730186462 116.304298401 109.654518127
C 102.234199524 113.898071289 107.160476685
C 101.954978943 114.518218994 109.909469604
O 104.867591858 116.562934875 109.118888855
C 102.896263123 115.200737000 109.107475281
C 103.067489624 114.859298706 107.746437073
C 101.255691528 113.199424744 107.955787659
10
name:0,n_samples:50,mol_size:10,random_seed:23294,imol:41
C 104.341583252 114.811515808 106.745521545
C 101.747749329 113.181709290 106.348098755
C 105.415435791 116.860443115 108.006996155
C 103.619567871 114.725273132 105.379425049
C 102.739875793 113.500076294 105.183609009
C 105.154472351 118.203865051 108.713920593
C 101.671638489 114.274009705 107.450897217
C 104.169586182 116.234085083 107.327438354
O 101.257408142 115.529754639 106.886390686
C 100.316810608 112.996765137 105.768646240
10
name:0,n_samples:50,mol_size:10,random_seed:23294,imol:42
C 102.613945007 114.004615784 106.732833862
O 103.828514099 114.219398499 106.097450256
C 102.521942139 114.492218018 108.166275024
O 104.715454102 116.875610352 109.607864380
C 100.925834656 116.905174255 107.389396667
C 104.459030151 116.304344177 108.510696411
O 105.411613464 116.215934753 107.572959900
C 103.093276978 115.886718750 108.130462646
C 102.430297852 116.853385925 107.166213989
C 101.601295471 113.059722900 106.138999939
10
name:0,n_samples:50,mol_size:10,random_seed:23294,imol:43
C 105.372787476 115.598976135 107.573524475
N 103.439613342 116.199920654 108.777038574
C 102.874031067 114.560661316 107.308013916
C 102.076446533 115.900169373 109.041358948
C 104.507385254 117.006156921 109.284461975
C 102.982566833 113.711395264 106.090393066
C 104.076644897 118.116775513 110.294334412
C 103.947738647 115.443412781 107.778732300
C 105.755241394 116.640571594 108.616172791
C 101.677909851 114.868812561 108.188522339
10
name:0,n_samples:50,mol_size:10,random_seed:23294,imol:44
C 101.445457458 113.400543213 108.824615479
C 103.497924805 114.459724426 108.526580811
C 101.058952332 112.667861938 106.299674988
C 101.833511353 113.357635498 107.444084167
C 104.735954285 115.201019287 108.632568359
C 103.069610596 114.022773743 107.266433716
C 102.462242126 114.112442017 109.498001099
C 102.386299133 114.598281860 110.938957214
O 105.448173523 115.356910706 107.612915039
C 105.147491455 115.752372742 109.993721008
10
name:0,n_samples:50,mol_size:10,random_seed:23294,imol:45
O 103.489746094 113.868591309 106.370056152
C 103.202713013 116.961967468 107.945304871
C 101.294624329 115.327659607 107.915870667
O 101.103446960 114.103881836 108.157157898
C 102.562614441 115.731994629 107.532577515
C 103.574096680 114.961524963 106.966827393
N 104.796470642 115.609748840 107.094970703
C 104.577850342 116.792930603 107.724761963
Cl 105.750267029 118.020065308 108.483116150
O 100.373771667 116.078689575 108.021217346
10
name:0,n_samples:50,mol_size:10,random_seed:23294,imol:46
O 103.143043518 114.377197266 105.902038574
C 102.362403870 115.424644470 107.822914124
C 101.515480042 116.325088501 110.029769897
C 103.398719788 115.071296692 106.981124878
C 104.928016663 116.221588135 108.423248291
O 101.195587158 115.056747437 107.466300964
C 102.600074768 116.124206543 109.023368835
C 103.881835938 116.568618774 109.278106689
C 104.696807861 115.430664062 107.307754517
O 102.046066284 117.084495544 111.107254028
10
name:0,n_samples:50,mol_size:10,random_seed:23294,imol:47
C 104.274696350 114.652000427 105.579803467
O 106.160827637 115.271347046 107.131065369
C 104.013633728 115.792945862 107.649955750
N 106.071716309 116.176017761 108.621528625
C 102.621253967 115.838844299 107.435676575
C 104.779388428 116.330467224 108.697982788
Cl 100.329452515 115.378555298 106.077346802
C 102.873680115 114.695739746 105.294067383
C 102.079185486 115.283500671 106.278434753
C 104.806381226 115.221488953 106.761085510
10
name:0,n_samples:50,mol_size:10,random_seed:23294,imol:48
C 104.405265808 113.803642273 107.162712097
O 106.624221802 115.142776489 107.049591064
C 104.473152161 116.389884949 107.418273926
C 105.502098083 116.700500488 109.896110535
C 104.787399292 113.098541260 105.902618408
C 103.029830933 113.882240295 107.940521240
C 105.297462463 115.058624268 107.468971252
C 104.272125244 116.904998779 108.909530640
C 102.284027100 115.201339722 107.397064209
O 103.212081909 115.976684570 106.637191772
10
name:0,n_samples:50,mol_size:10,random_seed:23294,imol:49
C 106.827529907 114.664978027 109.212005615
C 102.673812866 115.383552551 109.039344788
C 103.622550964 113.247451782 105.955612183
C 103.259872437 114.339668274 108.175788879
C 102.424415588 113.536117554 107.047866821
C 107.471031189 115.894577026 110.037048340
C 105.494659424 115.201484680 108.611518860
C 104.925994873 113.922828674 106.464614868
C 104.531013489 114.471054077 107.860359192
O 101.762161255 114.682434082 109.945449829
