14
name:0,n_samples:50,mol_size:14,random_seed:12118,imol:0
N 101.344352722 116.396873474 109.066947937
C 105.844543457 116.483985901 109.798217773
C 101.798606873 113.911125183 107.712005615
N 104.505638123 115.528427124 106.424468994
C 102.725219727 114.922157288 107.527519226
C 103.339225769 114.807464600 106.285499573
C 104.501342773 116.177398682 107.643852234
N 102.721435547 116.667709351 109.282241821
C 105.614158630 116.859077454 108.334022522
C 102.587562561 113.769844055 105.676521301
C 106.860046387 116.035011292 108.047622681
C 103.286201477 115.975219727 108.248474121
C 107.282081604 116.226516724 109.486228943
N 101.690948486 113.206649780 106.547119141
14
name:0,n_samples:50,mol_size:14,random_seed:12118,imol:1
O 100.115898132 114.319129944 107.232872009
C 105.480690002 117.504318237 108.393997192
C 102.610771179 115.781951904 107.262756348
C 103.290748596 113.952865601 105.869720459
C 104.872657776 115.493240356 106.674713135
O 106.012596130 116.459022522 108.927566528
S 100.559410095 113.436599731 104.927215576
N 100.887031555 114.241302490 106.322738647
C 104.587135315 114.364723206 105.971633911
O 101.714515686 116.434303284 107.979331970
O 106.001342773 118.539474487 108.491691589
C 102.266571045 114.687767029 106.513923645
O 104.269607544 117.476455688 107.840423584
N 103.934356689 116.235725403 107.294158936
14
name:0,n_samples:50,mol_size:14,random_seed:12118,imol:2
O 105.089996338 114.800308228 110.330047607
O 107.097915649 114.658744812 108.611129761
N 105.067283630 116.013076782 108.346107483
O 106.789390564 116.503227234 110.046646118
O 105.224449158 118.340591431 107.117057800
C 103.529006958 114.197227478 105.260559082
C 102.460479736 114.666145325 106.316474915
S 106.039413452 115.538543701 109.401023865
C 103.056098938 116.032943726 106.827461243
C 104.817817688 113.776863098 105.976257324
C 104.056266785 118.597885132 107.069061279
C 102.813285828 118.191627502 107.774253845
C 102.015792847 117.030372620 107.140220642
C 103.740936279 115.839828491 107.984664917
14
name:0,n_samples:50,mol_size:14,random_seed:12118,imol:3
C 102.528266907 117.909477234 112.171783447
C 103.291503906 112.520706177 106.077461243
O 105.171073914 117.385238647 110.934402466
C 103.553817749 115.783309937 108.242172241
C 103.123687744 114.362304688 107.873367310
O 104.932708740 114.287200928 106.268302917
N 104.270614624 115.807632446 109.550338745
C 103.699501038 113.961082458 106.480926514
C 101.605239868 116.648468018 111.753746033
C 101.586387634 114.177673340 108.014427185
C 102.953979492 116.876106262 111.279487610
O 102.409301758 116.457313538 108.324188232
C 102.444892883 112.505729675 104.804405212
C 104.129287720 116.699302673 110.584884644
14
name:0,n_samples:50,mol_size:14,random_seed:12118,imol:4
C 105.985542297 115.638412476 108.535240173
O 104.896278381 115.467521667 108.945404053
C 106.172325134 115.475486755 107.062194824
C 101.026473999 113.107795715 104.715995789
S 106.686607361 114.209533691 106.346153259
C 99.631706238 113.427726746 106.929115295
C 100.564064026 114.125007629 105.859680176
C 101.925048828 114.540550232 106.359260559
C 104.130508423 115.191993713 105.769233704
O 106.942314148 116.172065735 109.393638611
C 99.873588562 115.473373413 105.450172424
C 105.073249817 114.477149963 106.525596619
C 102.915870667 114.246826172 105.439620972
C 102.594352722 113.218132019 104.678169250
14
name:0,n_samples:50,mol_size:14,random_seed:12118,imol:5
C 104.954582214 118.887863159 110.535087585
C 104.102981567 117.480545044 107.912422180
C 100.481430054 114.464401245 107.062568665
C 105.644775391 116.450523376 106.892242432
C 104.874008179 117.349853516 110.487190247
O 100.737174988 114.834014893 109.408668518
C 102.769187927 115.079055786 108.179466248
C 101.261276245 114.716552734 108.319488525
C 104.208518982 116.434013367 106.803642273
C 105.459037781 118.013801575 107.362480164
C 100.729415894 113.082023621 106.467521667
O 103.217361450 115.359481812 106.875801086
C 103.322608948 115.704292297 109.438285828
N 104.329849243 116.758232117 109.226394653
14
name:0,n_samples:50,mol_size:14,random_seed:12118,imol:6
C 105.454917908 115.805694580 109.739364624
C 106.357185364 115.966033936 106.318672180
C 104.109573364 115.052940369 106.556373596
C 104.290779114 115.167755127 107.939552307
O 106.436561584 116.137901306 107.593460083
C 103.584312439 114.857482910 109.116020203
C 101.049079895 113.450653076 107.478080750
O 104.331611633 115.225250244 110.177001953
C 101.377716064 115.469497681 107.490516663
C 105.209503174 115.430526733 105.740043640
C 102.846908569 114.584869385 105.768608093
N 106.351043701 116.281150818 110.519371033
C 105.476226807 115.743095398 108.397056580
C 101.877342224 114.291130066 106.946037292
14
name:0,n_samples:50,mol_size:14,random_seed:12118,imol:7
C 104.520599365 115.546737671 108.288482666
C 106.581550598 116.311340332 109.271072388
C 102.320007324 115.010536194 107.168853760
C 102.343421936 115.895286560 105.925323486
C 102.512916565 113.708145142 104.595901489
C 104.449737549 116.643730164 110.388519287
C 105.847839355 116.776695251 110.364761353
C 104.437011719 114.676185608 105.903465271
C 101.449935913 113.726272583 106.875610352
C 103.780120850 116.062629700 109.339019775
C 103.222938538 115.041893005 104.983985901
C 105.920074463 115.704086304 108.187850952
C 101.168441772 113.627410889 105.355087280
C 103.789657593 114.649452209 107.300918579
14
name:0,n_samples:50,mol_size:14,random_seed:12118,imol:8
C 104.563507080 116.299949646 107.763679504
C 100.663551331 115.878547668 106.650131226
C 98.879974365 114.192573547 106.503135681
C 98.914588928 114.107681274 108.037040710
C 100.856597900 117.003158569 107.688331604
O 99.250595093 115.591506958 106.266098022
C 102.727577209 114.511566162 107.322250366
C 100.398384094 114.143867493 108.468017578
C 102.350387573 117.013221741 107.953514099
N 103.168388367 118.047103882 108.398025513
C 101.234870911 114.584289551 107.266616821
C 104.463737488 117.651802063 108.232444763
C 103.188835144 115.918052673 107.660194397
O 105.425201416 118.455253601 108.411125183
14
name:0,n_samples:50,mol_size:14,random_seed:12118,imol:9
C 104.977348328 118.063339233 106.118644714
C 102.711540222 118.055145264 107.147789001
C 104.394783020 117.833320618 109.563339233
S 103.716362000 113.624572754 105.241668701
C 104.253074646 114.893020630 106.167564392
C 102.501579285 113.799819946 107.311241150
C 103.595794678 115.840080261 108.362228394
C 104.152664185 117.985511780 107.279655457
C 102.733749390 113.030235291 106.247413635
C 101.348144531 113.625862122 108.172042847
C 103.451141357 114.910591125 107.341506958
C 104.559829712 116.971069336 108.310577393
C 102.654151917 115.803871155 109.460823059
O 100.627380371 112.467948914 107.667320251
14
name:0,n_samples:50,mol_size:14,random_seed:12118,imol:10
C 101.540229797 115.498474121 109.301437378
C 103.998611450 116.125053406 109.070404053
Cl 100.636009216 113.000251770 106.044593811
C 102.748863220 114.429168701 107.495346069
C 104.276153564 114.324035645 107.010856628
C 101.282714844 116.367988586 110.473556519
S 100.533294678 114.320686340 108.531227112
C 103.984558105 117.004135132 110.055450439
S 105.443832397 115.470726013 108.110160828
C 102.823913574 115.446693420 108.621215820
C 102.747657776 117.107192993 110.859138489
O 102.646217346 118.052345276 111.724464417
C 101.653816223 113.763267517 107.338661194
O 104.994934082 117.853218079 110.306777954
14
name:0,n_samples:50,mol_size:14,random_seed:12118,imol:11
C 103.283233643 115.162452698 107.250732422
C 101.854225159 115.140396118 106.996162415
C 101.622375488 114.203453064 105.924316406
C 105.272209167 115.557243347 108.306167603
C 100.622581482 117.579833984 108.167526245
C 104.777122498 116.915267944 108.790542603
C 102.034996033 118.031677246 108.285079956
C 105.211151123 114.123405457 106.214118958
C 103.936317444 117.503509521 109.955223083
C 102.886322021 113.729263306 105.553741455
C 102.513969421 117.888938904 109.581443787
C 103.876060486 114.331115723 106.340309143
C 104.149536133 115.804565430 108.155105591
S 106.257537842 114.895027161 107.063018799
14
name:0,n_samples:50,mol_size:14,random_seed:12118,imol:12
C 104.839294434 114.679168701 107.068878174
C 105.646965027 115.984466553 108.680145264
C 104.151382446 116.460762024 108.570297241
N 103.270301819 117.499488831 108.121597290
C 105.153465271 117.082427979 110.574668884
C 100.691337585 114.960800171 105.908798218
C 106.345825195 116.395202637 109.772911072
C 101.581466675 114.495155334 107.027313232
O 103.904304504 116.657669067 110.063636780
N 102.470405579 115.760467529 106.988548279
C 104.782119751 113.505783081 106.058433533
C 102.221572876 116.984359741 107.304153442
C 103.815948486 115.409248352 107.540817261
C 106.001930237 114.943038940 107.787361145
14
name:0,n_samples:50,mol_size:14,random_seed:12118,imol:13
C 103.847290039 115.308639526 106.909477234
C 104.875419617 116.361053467 109.330833435
C 103.701622009 116.727981567 108.815139771
O 102.616027832 113.367317200 106.082649231
C 104.486351013 116.216529846 107.895729065
C 104.142555237 117.635139465 111.368957520
C 105.119445801 117.008697510 110.637809753
O 105.424484253 116.598175049 105.854728699
C 102.603782654 117.263572693 109.494201660
C 102.892166138 114.231025696 107.086036682
C 105.537185669 116.956192017 107.172149658
C 102.824058533 117.720588684 110.789215088
C 104.390853882 115.654449463 105.608299255
O 102.257377625 114.141868591 108.209877014
14
name:0,n_samples:50,mol_size:14,random_seed:12118,imol:14
C 105.991470337 116.842750549 110.140342712
C 102.884712219 116.625289917 109.951904297
C 103.299369812 114.620414734 107.048561096
C 101.409698486 113.820304871 105.984382629
N 101.096595764 115.187225342 108.019317627
C 102.747909546 113.882926941 106.058319092
O 107.036270142 117.367546082 110.754135132
C 104.697227478 115.908912659 108.158119202
O 104.882064819 118.294807434 108.576141357
C 100.679412842 114.490303040 106.905403137
N 104.619888306 114.974784851 107.080108643
C 102.506500244 115.162979126 108.062652588
C 105.273887634 117.090995789 108.881996155
C 103.502288818 115.578048706 109.022903442
14
name:0,n_samples:50,mol_size:14,random_seed:12118,imol:15
C 102.695121765 115.128341675 105.279090881
O 101.610832214 114.421028137 104.591499329
C 105.871391296 117.021011353 109.327026367
C 102.075836182 116.449569702 108.821243286
O 106.989204407 116.700508118 110.207229614
C 102.849143982 114.715614319 106.737548828
O 103.361228943 116.123161316 104.790374756
C 104.616577148 116.215873718 109.648986816
C 104.081024170 115.330345154 107.325531006
C 100.978309631 115.862548828 107.897201538
C 103.587516785 116.224494934 108.479095459
C 103.833778381 116.765396118 107.176490784
S 102.286888123 113.070892334 107.086875916
S 105.722976685 115.372673035 106.602455139
14
name:0,n_samples:50,mol_size:14,random_seed:12118,imol:16
C 104.388412476 116.900863647 108.698974609
C 100.581680298 114.898117065 106.805335999
C 102.207389832 116.077972412 108.304199219
N 103.635124207 115.714927673 108.194969177
C 104.064201355 115.423416138 106.822036743
C 99.594413757 112.412429810 107.662796021
O 105.690322876 116.862289429 108.322486877
O 103.752792358 118.138908386 108.316200256
C 99.215354919 114.887550354 107.505752563
C 101.448318481 114.805175781 108.021308899
C 104.279571533 116.955787659 110.269172668
C 98.919975281 113.623268127 108.288719177
C 101.816528320 114.083740234 106.786415100
C 103.091186523 114.584983826 106.022277832
14
name:0,n_samples:50,mol_size:14,random_seed:12118,imol:17
C 101.749839783 115.687988281 108.473236084
N 105.314811707 115.353080750 107.927413940
C 106.718887329 117.484214783 111.310920715
C 105.387626648 117.439231873 111.011787415
C 104.017135620 115.166145325 107.711776733
C 105.799362183 116.152397156 109.017021179
C 106.290336609 114.702346802 107.065292358
O 103.401649475 114.218879700 106.575828552
C 103.088104248 115.761375427 108.480636597
C 104.937713623 116.820106506 109.881805420
C 107.127532959 116.266059875 109.281494141
C 107.591354370 116.916664124 110.424781799
C 101.172912598 114.842758179 107.532852173
C 101.982757568 114.153305054 106.651565552
14
name:0,n_samples:50,mol_size:14,random_seed:12118,imol:18
C 103.705795288 116.985588074 109.626335144
C 105.087654114 116.652923584 109.484840393
N 102.290634155 115.020919800 106.703048706
C 102.714157104 116.600776672 108.668212891
O 100.792823792 113.349601746 104.437065125
C 103.157485962 115.672256470 107.625228882
O 105.987464905 117.038253784 110.376754761
C 102.902847290 116.000114441 104.555458069
C 103.099586487 114.694740295 105.459533691
C 101.767745972 115.406990051 103.610580444
C 100.551414490 114.755706787 104.266929626
C 105.499176025 115.886825562 108.383193970
C 104.520545959 115.421356201 107.471694946
O 101.493850708 117.176315308 108.794624329
14
name:0,n_samples:50,mol_size:14,random_seed:12118,imol:19
C 104.336753845 117.069229126 111.677055359
C 101.539039612 114.608406067 106.539070129
C 103.611579895 115.728874207 107.568283081
C 104.121963501 117.287673950 109.433654785
C 101.320838928 117.402503967 106.862823486
C 103.425918579 116.715431213 110.623023987
C 100.766891479 114.598884583 105.201553345
O 104.262123108 114.828651428 108.137672424
C 104.743011475 118.524887085 111.860702515
C 101.827705383 117.282897949 108.262596130
C 102.810012817 115.488708496 106.306617737
O 105.389854431 116.696952820 109.258132935
C 102.235656738 116.797401428 105.771369934
C 103.318939209 117.047042847 108.186515808
14
name:0,n_samples:50,mol_size:14,random_seed:12118,imol:20
C 103.181159973 115.961479187 107.521087646
O 101.741371155 113.364517212 106.053443909
C 103.461120605 117.353431702 108.084381104
C 104.081588745 114.047828674 105.592979431
C 102.872550964 113.826843262 106.380897522
C 101.961387634 113.763206482 108.639991760
C 104.858367920 117.440109253 107.491073608
C 104.721145630 115.990859985 107.225189209
O 101.942657471 114.301292419 109.954498291
C 102.145957947 116.377624512 106.425720215
C 103.021156311 114.454910278 107.781852722
O 105.818603516 117.752731323 108.497314453
O 103.481513977 117.456970215 109.497138977
C 104.729751587 115.445884705 105.756904602
14
name:0,n_samples:50,mol_size:14,random_seed:12118,imol:21
C 102.857170105 114.772552490 106.097679138
C 101.964942932 116.867507935 109.743202209
N 105.560874939 114.166450500 106.060676575
N 106.476478577 117.370643616 109.917366028
C 105.617591858 116.656913757 109.024116516
C 106.184997559 115.852035522 107.938735962
C 103.933685303 115.279800415 107.013664246
C 105.383529663 115.169799805 107.048706055
C 100.900077820 115.610466003 107.434349060
N 101.437355042 115.012313843 106.151573181
C 102.032623291 115.988502502 108.403778076
C 104.203010559 116.617301941 109.173240662
C 103.440002441 115.985267639 108.233085632
N 103.259002686 117.201591492 110.062561035
14
name:0,n_samples:50,mol_size:14,random_seed:12118,imol:22
C 102.469383240 117.487960815 111.312713623
O 105.302093506 115.148674011 106.024536133
C 104.240974426 114.258613586 106.547630310
C 104.354675293 116.017593384 108.440124512
C 103.469207764 117.306617737 110.400451660
N 103.291564941 114.131484985 105.419364929
C 102.456977844 112.910614014 105.420402527
O 102.437484741 114.480384827 108.366287231
C 103.398712158 116.297653198 109.513153076
O 100.439689636 114.487312317 110.417526245
C 101.452041626 116.531997681 111.373748779
C 103.546287537 114.996574402 107.639053345
C 102.348358154 115.413253784 109.487098694
C 101.420875549 115.485115051 110.468109131
14
name:0,n_samples:50,mol_size:14,random_seed:12118,imol:23
C 103.123085022 114.126815796 107.262626648
C 105.722717285 116.124198914 107.502975464
C 104.074607849 117.003044128 109.373298645
C 102.277519226 115.641761780 108.988334656
C 104.032440186 113.499877930 106.225631714
N 100.968032837 113.685272217 108.431983948
C 101.058242798 114.841911316 109.177207947
C 104.411201477 116.143348694 108.260002136
O 99.134422302 114.116775513 110.408943176
C 103.323257446 115.245643616 108.065521240
C 102.724998474 116.753097534 109.739418030
N 100.010208130 115.194740295 110.146720886
O 104.813911438 117.750831604 110.072441101
C 101.868698120 113.342346191 107.492927551
14
name:0,n_samples:50,mol_size:14,random_seed:12118,imol:24
C 104.728881836 116.122039795 106.740783691
C 100.990997314 115.289604187 107.250503540
C 105.972854614 115.456451416 106.777999878
C 103.793464661 115.706588745 107.741210938
C 100.101951599 112.929534912 106.768280029
C 106.517356873 115.242042542 108.088752747
C 105.624740601 115.376197815 109.219902039
C 101.865974426 116.176422119 109.339469910
C 102.222145081 115.917465210 107.765182495
O 102.160926819 113.944084167 105.596534729
C 105.931549072 115.613121033 110.676467896
N 104.362930298 115.341644287 108.930694580
C 101.344017029 113.853576660 106.769256592
C 100.128509521 116.109054565 106.361763000
14
name:0,n_samples:50,mol_size:14,random_seed:12118,imol:25
C 99.389328003 114.586982727 106.631828308
N 105.001358032 116.179481506 107.758323669
C 100.432945251 113.833015442 107.486000061
Cl 100.754722595 117.569679260 107.304786682
C 99.887374878 115.557960510 105.528472900
C 102.427047729 114.832702637 105.409896851
C 101.161651611 115.169776917 104.764236450
C 104.410842896 115.658210754 106.607299805
C 102.910385132 116.793060303 108.556274414
C 102.981369019 113.455429077 104.958389282
C 102.251693726 116.511024475 107.364974976
O 104.870597839 117.023429871 109.817985535
C 104.226982117 116.688941956 108.708847046
C 103.003494263 115.677085876 106.414978027
14
name:0,n_samples:50,mol_size:14,random_seed:12118,imol:26
C 103.637626648 115.317871094 105.910240173
N 100.695373535 115.453788757 109.549736023
C 99.725906372 115.341873169 105.518363953
C 102.200050354 115.142639160 106.250152588
C 105.977020264 116.433937073 109.577995300
C 101.988914490 115.986961365 109.744071960
N 100.556068420 114.938468933 108.269660950
O 105.736000061 116.184211731 106.533943176
C 104.046707153 116.177772522 108.143295288
C 104.514831543 115.763290405 106.772743225
N 104.773323059 116.920158386 108.961952209
C 101.759780884 115.208717346 107.628822327
C 102.682762146 115.803733826 108.530395508
C 101.123245239 115.108512878 105.059951782
14
name:0,n_samples:50,mol_size:14,random_seed:12118,imol:27
C 102.304489136 116.113899231 108.533515930
C 104.604759216 116.559028625 109.343582153
C 101.238182068 114.003013611 107.684616089
C 105.961334229 117.011650085 108.853927612
C 100.389259338 113.434440613 106.414260864
C 100.669837952 113.654350281 109.064178467
C 101.179405212 115.522048950 107.664955139
C 100.133811951 114.983810425 109.550872803
C 106.680541992 117.794403076 109.960556030
C 101.601821899 112.527854919 105.789901733
O 101.935188293 117.449913025 108.933830261
O 99.983283997 115.818946838 108.405776978
C 103.747116089 116.276458740 108.120109558
O 104.306617737 115.367263794 107.295356750
14
name:0,n_samples:50,mol_size:14,random_seed:12118,imol:28
O 103.645614624 117.753669739 108.132003784
C 102.288040161 115.074531555 104.922721863
N 108.758155823 113.877235413 110.607872009
C 107.521240234 114.539566040 111.054679871
C 104.820243835 115.317222595 106.926475525
C 106.034111023 113.504676819 106.491828918
C 106.618461609 115.425750732 108.747245789
N 103.511833191 115.541023254 106.845527649
N 105.578826904 114.775634766 106.124183655
C 105.221466064 115.811195374 108.277587891
C 102.922355652 113.737220764 105.129722595
C 106.348205566 114.640899658 110.059249878
C 104.972351074 117.256835938 108.015151978
C 102.866134644 116.173873901 105.754844666
14
name:0,n_samples:50,mol_size:14,random_seed:12118,imol:29
O 104.095710754 116.923736572 110.669296265
C 104.835372925 116.300277710 107.836578369
C 101.787002563 115.810600281 107.150238037
C 102.918365479 114.926445007 107.190795898
C 103.093887329 118.230934143 107.584243774
C 104.116012573 117.473999023 108.468109131
C 106.355316162 115.985824585 108.183692932
C 106.850936890 115.034461975 107.052848816
N 100.729171753 115.034889221 106.850097656
C 104.080284119 114.896018982 107.824356079
C 101.096504211 113.815269470 106.473106384
N 101.706665039 117.239097595 107.152816772
C 102.495689392 113.651512146 106.601203918
C 104.421707153 117.958786011 109.709602356
14
name:0,n_samples:50,mol_size:14,random_seed:12118,imol:30
C 103.708549500 115.679374695 110.049888611
C 102.624534607 114.754356384 110.646530151
C 102.745857239 114.648498535 106.101867676
C 105.572441101 118.009071350 108.848434448
C 104.036575317 114.385398865 106.604270935
C 104.042755127 117.025482178 110.623527527
O 105.380928040 117.243606567 110.094917297
C 102.270904541 116.181289673 107.887481689
C 101.906265259 115.585563660 106.717773438
C 103.451782227 115.696281433 108.536071777
N 101.481964111 117.208351135 108.460136414
C 100.171295166 117.432250977 107.956863403
C 104.410728455 114.948326111 107.823883057
C 102.264724731 113.848091125 104.866378784
14
name:0,n_samples:50,mol_size:14,random_seed:12118,imol:31
C 105.396232605 117.400154114 108.955574036
C 104.017852783 115.168083191 108.376190186
C 103.170272827 114.158073425 108.112220764
N 105.068695068 116.868705750 110.268524170
C 100.920539856 113.536636353 109.001274109
C 103.777870178 114.934455872 110.556747437
C 104.294120789 115.669525146 107.019805908
C 102.264808655 113.892738342 109.226585388
C 102.667686462 114.133979797 110.724647522
C 104.204650879 115.726928711 109.605476379
C 103.574455261 117.113380432 107.005256653
N 104.369514465 117.945549011 108.002182007
C 103.390167236 113.409294128 106.802383423
S 105.026451111 113.938125610 106.371452332
14
name:0,n_samples:50,mol_size:14,random_seed:12118,imol:32
C 101.985244751 117.422019958 109.349906921
C 101.039749146 114.798133850 106.974113464
O 103.971038818 118.084594727 110.466590881
C 106.049514771 116.205192566 109.887252808
N 103.920822144 116.418487549 108.671890259
C 101.190338135 116.743133545 108.444053650
C 101.674041748 113.865196228 106.148803711
C 105.409072876 116.566017151 108.556411743
C 99.918708801 117.017776489 108.223991394
C 101.818145752 115.713798523 107.710556030
C 103.300781250 117.293289185 109.540657043
C 103.051292419 113.841979980 106.073562622
O 103.767921448 114.713005066 106.840171814
C 103.200744629 115.620597839 107.723358154
14
name:0,n_samples:50,mol_size:14,random_seed:12118,imol:33
C 102.043357849 113.984886169 105.524696350
C 106.250656128 115.083747864 108.436927795
O 103.354377747 117.351593018 106.803298950
O 103.640647888 113.787567139 108.011413574
C 104.102134705 115.047470093 107.376670837
C 100.614051819 116.030036926 106.194419861
C 105.889434814 117.136589050 109.631202698
C 102.058776855 115.507186890 105.895523071
C 102.996398926 115.990013123 107.017005920
C 104.825119019 115.508361816 108.653686523
C 106.950180054 116.287490845 108.882919312
C 105.144844055 114.878341675 106.288154602
O 104.673965454 116.835937500 108.997627258
C 106.443351746 114.726921082 106.944808960
14
name:0,n_samples:50,mol_size:14,random_seed:12118,imol:34
C 102.865867615 116.648498535 109.871726990
N 100.552894592 116.624748230 109.846321106
C 101.685653687 116.868255615 110.497596741
C 103.733726501 114.551727295 106.787483215
N 101.468948364 114.819282532 106.894515991
C 101.614082336 115.604049683 108.048278809
N 102.129722595 113.174095154 105.410728455
C 103.964584351 117.413215637 110.617309570
C 100.522903442 116.076187134 108.691383362
C 105.876739502 116.214103699 110.309623718
C 102.451850891 114.172111511 106.340255737
N 105.128303528 117.308792114 109.660728455
C 103.990219116 115.401374817 107.898651123
C 102.869972229 115.909454346 108.627639771
14
name:0,n_samples:50,mol_size:14,random_seed:12118,imol:35
C 103.192123413 117.067283630 110.490676880
N 101.480216980 113.406417847 109.587226868
C 103.013893127 114.390060425 107.951713562
O 101.343742371 112.811950684 107.386940002
C 106.894035339 116.930763245 109.737892151
C 103.449996948 115.443893433 108.746475220
C 101.893623352 113.511123657 108.337081909
C 105.325744629 115.640907288 107.269622803
C 104.561630249 117.417663574 110.435333252
C 103.655731201 114.168373108 106.746665955
C 105.409873962 116.790962219 109.530685425
N 102.661285400 116.076354980 109.702568054
C 104.746070862 115.938163757 108.505683899
N 104.778434753 114.819221497 106.399444580
14
name:0,n_samples:50,mol_size:14,random_seed:12118,imol:36
C 105.722328186 116.125068665 108.754989624
O 105.870346069 115.386909485 106.355583191
C 103.974235535 114.030509949 105.599159241
C 106.999755859 116.240348816 108.791183472
C 104.339981079 116.018028259 108.669685364
C 101.240493774 115.061599731 107.762947083
C 103.496002197 116.608413696 109.589012146
C 104.687103271 114.921211243 106.460502625
C 103.911979675 117.498802185 110.586982727
C 103.783203125 115.289535522 107.536079407
C 106.177040100 118.283439636 111.513229370
C 105.136558533 117.818702698 110.997177124
C 102.519180298 114.762855530 107.173774719
C 102.626579285 113.920257568 106.025489807
14
name:0,n_samples:50,mol_size:14,random_seed:12118,imol:37
C 105.937034607 117.560256958 108.728500366
C 104.356925964 115.300933838 106.713569641
C 103.296585083 117.559020996 106.563842773
C 102.408096313 117.038978577 105.744552612
C 106.930343628 116.808044434 109.727127075
C 106.600555420 115.259094238 109.681015015
C 102.320892334 115.622184753 105.625831604
C 104.159866333 116.661529541 107.290863037
C 103.434280396 114.862937927 106.075149536
C 101.336936951 114.755111694 105.261238098
C 104.744667053 116.812988281 108.741287231
N 99.159210205 114.295600891 104.136497498
C 100.161193848 114.614105225 104.748016357
C 105.087333679 115.345054626 109.407516479
14
name:0,n_samples:50,mol_size:14,random_seed:12118,imol:38
O 101.484222412 114.057556152 108.246337891
C 104.245719910 117.149810791 110.477180481
C 102.899520874 115.684097290 109.216133118
C 99.187576294 112.360801697 105.692512512
O 101.684043884 115.057228088 111.180259705
O 103.412208557 114.545089722 107.252815247
C 99.021507263 112.920066833 104.334358215
C 102.621391296 114.694038391 108.212310791
O 101.228286743 116.983825684 110.273307800
C 101.875976562 115.922523499 110.303558350
C 104.198593140 116.539543152 109.124481201
C 100.696296692 113.247512817 107.647460938
C 105.558746338 117.852493286 110.684883118
C 100.329040527 112.932273865 106.292053223
14
name:0,n_samples:50,mol_size:14,random_seed:12118,imol:39
S 106.861473083 116.867843628 109.243919373
C 100.705543518 112.269554138 106.573173523
C 102.118568420 115.329002380 108.250640869
C 102.921493530 113.483650208 106.280754089
C 103.480827332 115.238716125 107.835487366
C 105.467803955 117.632812500 109.991508484
C 101.188568115 114.480346680 107.667236328
C 104.277404785 117.041183472 109.507339478
O 105.083343506 114.372726440 106.233177185
C 105.963531494 115.771934509 108.380615234
C 104.468772888 116.047004700 108.582908630
C 103.833473206 114.348098755 106.753692627
C 101.623435974 113.466392517 106.811210632
C 99.694503784 114.722442627 107.933151245
14
name:0,n_samples:50,mol_size:14,random_seed:12118,imol:40
O 101.254196167 116.770782471 108.613784790
S 101.937408447 114.285995483 104.991081238
C 103.115615845 115.476638794 104.513206482
C 105.690399170 117.150085449 108.599922180
C 104.346687317 114.477584839 108.462593079
C 106.168533325 116.006103516 107.689765930
N 105.749794006 114.647468567 108.046859741
C 101.932014465 114.838531494 106.680183411
C 104.004806519 115.785392761 105.697547913
C 103.452667236 115.727172852 108.371856689
C 103.018402100 115.855087280 106.907928467
C 104.234756470 116.899917603 109.022232056
C 102.110359192 115.741241455 109.055259705
C 103.674674988 117.858299255 110.036750793
14
name:0,n_samples:50,mol_size:14,random_seed:12118,imol:41
N 101.662918091 116.456428528 109.580856323
N 103.901351929 114.968841553 106.787940979
C 105.569900513 116.810897827 108.078376770
C 103.047065735 114.058540344 105.988517761
O 102.069190979 117.937873840 111.235168457
C 103.400756836 115.626052856 107.960449219
C 102.467124939 117.227920532 110.289344788
S 101.865470886 115.241455078 108.442665100
C 104.343574524 116.630531311 108.736213684
C 103.868118286 117.248115540 109.895332336
N 104.656494141 117.781967163 110.639663696
C 105.941497803 116.092788696 106.971092224
N 105.140838623 115.249122620 106.410102844
S 99.928367615 116.771339417 109.448577881
14
name:0,n_samples:50,mol_size:14,random_seed:12118,imol:42
C 99.263877869 114.024658203 104.638366699
C 100.911437988 113.758590698 106.571907043
O 102.548553467 113.736152649 108.345245361
C 104.723220825 113.891357422 106.412498474
O 104.717422485 116.851173401 106.457565308
C 100.694595337 114.003623962 105.222198486
O 105.001647949 118.170722961 107.148330688
C 104.612586975 115.909591675 107.537559509
C 105.280776978 114.750953674 107.463973999
N 105.700752258 115.696395874 108.165084839
C 102.226287842 113.808525085 107.026062012
C 103.292182922 113.991577148 106.111839294
C 102.989875793 114.292884827 104.804557800
C 101.698173523 114.279556274 104.330337524
14
name:0,n_samples:50,mol_size:14,random_seed:12118,imol:43
C 102.926185608 114.759590149 108.452224731
C 104.939987183 115.783767700 107.174652100
C 103.242996216 116.640335083 110.268577576
C 105.809532166 117.164802551 109.768692017
C 103.825050354 114.624603271 107.156906128
C 101.682456970 116.214340210 111.621406555
C 102.690162659 115.476737976 109.747627258
C 104.269836426 117.021850586 107.821540833
C 104.498046875 117.165916443 109.264503479
C 101.619606018 115.156639099 110.631423950
S 102.925346375 113.780464172 105.840751648
C 102.748191833 117.090675354 111.437355042
C 106.249198914 115.619766235 107.899673462
C 106.750717163 116.343276978 109.048103333
14
name:0,n_samples:50,mol_size:14,random_seed:12118,imol:44
S 102.065773010 115.774253845 108.689819336
C 102.138786316 114.060775757 106.355186462
C 105.215202332 115.547592163 109.553474426
C 106.393127441 115.639266968 107.420326233
C 102.898155212 114.735618591 107.581336975
C 107.348632812 115.496093750 108.596771240
C 104.977813721 116.130653381 108.062133789
O 104.354530334 117.384147644 108.436935425
C 99.357337952 115.846252441 109.247062683
C 100.965515137 113.125679016 106.843254089
N 100.302856445 113.844009399 107.966819763
C 100.481651306 115.040817261 108.565414429
C 106.654518127 115.856346130 109.973213196
C 103.963340759 115.570785522 106.930534363
14
name:0,n_samples:50,mol_size:14,random_seed:12118,imol:45
O 104.381233215 115.093505859 105.843002319
C 101.689231873 115.873977661 109.438613892
C 102.559150696 114.822181702 109.534240723
C 103.207061768 116.119689941 107.441589355
C 103.123237610 113.062278748 104.601982117
C 101.924507141 114.554832458 106.277915955
C 103.091140747 115.900306702 108.861694336
C 104.394783020 115.835769653 108.222549438
C 101.958000183 113.315528870 105.563117981
C 100.811782837 115.849487305 108.208389282
C 105.207794189 117.045234680 108.557083130
O 104.952346802 117.322654724 109.944801331
O 100.875183105 114.641677856 107.435363770
C 103.355613708 114.840484619 106.658988953
14
name:0,n_samples:50,mol_size:14,random_seed:12118,imol:46
C 105.161079407 115.259796143 108.811080933
C 105.192298889 117.419067383 109.792366028
C 101.768829346 115.967117310 108.860588074
O 106.374519348 117.361862183 108.986076355
C 102.899246216 116.395812988 109.788612366
C 103.397384644 116.300765991 106.322868347
C 102.906860352 113.853050232 105.641990662
C 103.250648499 114.862396240 106.779479980
C 103.876258850 117.189498901 107.553993225
C 100.205383301 113.458091736 107.053108215
C 102.424835205 112.518630981 106.368141174
C 102.251747131 114.858001709 107.893005371
C 101.221534729 112.661422729 107.145820618
C 104.189811707 116.467689514 109.025657654
14
name:0,n_samples:50,mol_size:14,random_seed:12118,imol:47
C 101.842773438 117.723571777 108.957412720
C 106.221977234 115.624916077 111.343399048
C 102.893768311 115.161476135 106.336196899
C 100.672309875 114.603500366 107.256042480
C 101.830818176 116.528099060 108.121490479
O 100.677612305 115.909042358 107.851051331
C 105.622108459 115.518302917 107.853721619
C 106.799934387 116.097618103 110.001419067
C 106.644859314 115.091316223 108.908248901
C 101.459907532 114.803428650 105.915985107
C 104.259780884 115.868583679 108.450866699
N 103.739830017 114.289985657 105.698799133
C 103.031219482 115.913887024 107.521484375
O 107.000144958 117.334358215 109.798599243
14
name:0,n_samples:50,mol_size:14,random_seed:12118,imol:48
C 100.404571533 115.541908264 104.448120117
C 101.850601196 117.046737671 107.831710815
C 104.370704651 117.622238159 108.735649109
C 105.149971008 118.934173584 108.731117249
N 102.383995056 114.463928223 105.708183289
C 103.950050354 115.744300842 107.310874939
C 103.407554626 116.996360779 107.790573120
C 105.469711304 116.497306824 108.966232300
C 100.756088257 113.070053101 104.438941956
C 105.515792847 116.300636292 110.504333496
C 104.706008911 114.484397888 105.399162292
C 103.531661987 114.977706909 106.179809570
O 105.011489868 115.430931091 108.121841431
C 101.231002808 114.433723450 104.894775391
14
name:0,n_samples:50,mol_size:14,random_seed:12118,imol:49
C 101.676727295 114.753326416 107.470962524
C 102.893363953 115.477989197 108.016845703
C 105.234458923 116.691665649 109.031768799
C 104.029281616 116.920059204 109.751480103
O 103.914466858 117.716331482 110.773147583
C 102.918899536 116.279663086 109.216285706
O 101.864685059 116.484146118 109.929954529
C 100.258491516 114.768295288 108.034164429
C 106.237640381 115.707168579 106.876396179
C 105.225044250 115.961357117 107.817031860
O 105.648933411 114.934265137 105.838325500
C 104.301429749 114.753791809 106.045143127
C 101.785980225 114.148651123 106.108581543
C 104.044677734 115.385528564 107.296417236
