16
name:0,n_samples:50,mol_size:16,random_seed:28282,imol:0
C 105.045341492 116.878295898 107.694656372
C 103.793937683 117.702758789 110.177703857
C 100.555938721 113.137710571 106.733085632
C 103.560798645 116.712303162 107.809585571
O 105.604415894 117.141937256 106.492057800
O 101.688087463 116.664779663 109.472999573
C 105.198905945 117.064987183 110.125381470
N 105.715820312 116.703300476 108.789085388
O 101.654640198 112.674613953 105.907829285
C 106.191383362 117.837318420 110.995536804
C 101.300628662 113.876876831 107.879981995
C 103.012336731 116.937187195 109.156806946
C 103.440292358 115.250900269 107.413253784
C 102.791915894 117.625923157 106.854751587
C 102.014236450 114.996185303 107.115058899
C 105.027488708 115.662506104 110.801017761
16
name:0,n_samples:50,mol_size:16,random_seed:28282,imol:1
C 101.904159546 113.242874146 107.009284973
C 102.920516968 115.170692444 108.099372864
O 104.728302002 116.757217407 109.479949951
C 106.114585876 116.709007263 109.830322266
F 106.675071716 117.470458984 110.898216248
C 100.883468628 113.280204773 107.976188660
C 104.052879333 116.165405273 108.261627197
C 101.303733826 116.787170410 108.944900513
N 105.077735901 115.660316467 107.452224731
C 102.272842407 117.762916565 108.649169922
C 102.896392822 114.229911804 107.033218384
C 100.722625732 114.336341858 108.840309143
C 106.394401550 115.338043213 107.902519226
C 101.660285950 115.438690186 108.698677063
C 106.838409424 115.927879333 109.022064209
O 103.289482117 117.409057617 107.801429749
16
name:0,n_samples:50,mol_size:16,random_seed:28282,imol:2
C 99.766716003 114.111022949 110.083084106
C 103.006996155 114.022216797 106.620208740
C 103.894981384 116.117164612 109.126861572
O 99.031661987 112.940475464 110.142456055
C 104.164962769 115.957046509 107.615463257
C 100.287940979 111.295425415 108.862762451
C 100.835250854 113.719085693 107.837585449
C 100.434341431 114.648948669 108.886672974
C 101.554969788 113.585433960 106.468742371
O 103.676536560 114.024971008 105.342643738
C 100.495468140 112.475387573 108.210266113
O 103.819633484 114.858161926 109.692543030
O 104.959701538 116.904304504 109.625015259
C 99.175819397 112.282440186 108.865631104
C 102.858230591 115.491271973 107.009757996
C 106.330749512 116.676696777 109.192390442
16
name:0,n_samples:50,mol_size:16,random_seed:28282,imol:3
C 100.131713867 113.711395264 108.241493225
C 103.513229370 113.423873901 105.069763184
C 103.940017700 116.846504211 109.604629517
C 104.676490784 114.959800720 106.373100281
C 105.067443848 117.635299683 109.705627441
O 104.982574463 114.226310730 105.194648743
C 101.034919739 113.670417786 107.193481445
C 103.308425903 114.232879639 106.336685181
C 102.589851379 115.080368042 108.546707153
C 102.291183472 114.328887939 107.367134094
C 106.125991821 117.570144653 108.790229797
C 105.974601746 116.650619507 107.723892212
C 103.718681335 115.913436890 108.579071045
N 101.680534363 114.996582031 109.610359192
C 100.488883972 114.356796265 109.451797485
C 104.875061035 115.893737793 107.589233398
16
name:0,n_samples:50,mol_size:16,random_seed:28282,imol:4
C 105.237426758 116.208747864 109.616706848
C 101.066345215 116.181724548 107.259658813
O 106.504310608 115.836715698 111.663429260
O 104.771743774 114.625175476 111.357017517
C 104.360565186 115.292236328 108.869781494
C 100.730964661 113.039588928 105.349845886
C 104.734672546 113.914947510 108.663024902
C 102.978164673 115.636405945 108.855384827
C 102.076278687 112.623336792 105.282386780
C 102.264991760 116.574440002 108.157577515
O 102.308143616 117.892211914 108.335937500
C 100.317176819 114.120643616 106.126571655
C 101.331787109 114.819778442 106.741737366
C 105.488319397 115.480842590 110.920257568
C 103.087112427 113.264892578 106.062751770
C 102.632225037 114.309852600 106.751808167
16
name:0,n_samples:50,mol_size:16,random_seed:28282,imol:5
C 102.321830750 115.776168823 109.247360229
S 100.828369141 115.624137878 111.233680725
C 106.939445496 114.874359131 108.260887146
C 106.148040771 114.900833130 107.104911804
O 100.858757019 114.094093323 107.187042236
C 102.495124817 115.563949585 110.732749939
C 106.327056885 114.785942078 109.522743225
C 104.792709351 114.819252014 107.124092102
C 104.225738525 114.683525085 108.379936218
O 107.013336182 114.688591003 110.657897949
C 104.932502747 114.772628784 109.569114685
O 100.849517822 116.335739136 112.451477051
C 101.936683655 113.489929199 107.818077087
C 102.770996094 114.468330383 108.558547974
O 100.059020996 116.405570984 110.232109070
O 100.352409363 114.224021912 111.127807617
16
name:0,n_samples:50,mol_size:16,random_seed:28282,imol:6
C 105.237144470 117.000770569 110.957923889
N 101.595001221 114.455566406 105.997543335
C 104.138137817 116.527465820 109.080406189
C 100.412651062 113.951446533 105.514526367
O 102.381500244 115.618980408 108.003982544
C 103.712730408 115.756797791 107.986808777
O 105.245201111 116.175575256 109.787948608
C 103.486839294 117.576499939 109.708892822
O 104.527091980 115.150924683 107.240333557
C 101.553695679 115.480651855 106.896217346
C 99.328910828 114.812171936 105.514976501
O 102.669326782 113.310752869 104.251121521
C 102.845382690 113.828750610 105.487014771
C 99.345802307 116.046302795 106.139137268
C 100.480995178 116.395553589 106.829017639
N 104.200401306 117.848854065 110.848976135
16
name:0,n_samples:50,mol_size:16,random_seed:28282,imol:7
C 105.970123291 117.167030334 108.095001221
C 102.914031982 115.092590332 106.521858215
C 104.318275452 115.338851929 106.934364319
C 102.102500916 115.266464233 110.197151184
C 106.803962708 115.216293335 109.127037048
N 106.704048157 115.893615723 107.842613220
C 104.945083618 116.640556335 109.087982178
C 106.603729248 116.953941345 110.815078735
C 102.368537903 115.574050903 105.319335938
C 105.772117615 115.873649597 110.014183044
C 102.955841064 115.024368286 108.920074463
O 100.950790405 115.745330811 107.741638184
C 101.094528198 116.162338257 105.409744263
C 103.893241882 116.123901367 108.272033691
C 100.409278870 116.255676270 106.660476685
C 102.077575684 115.067756653 107.733390808
16
name:0,n_samples:50,mol_size:16,random_seed:28282,imol:8
C 104.591026306 117.482589722 109.616462708
O 105.207870483 114.424728394 106.202804565
C 102.365371704 114.403480530 108.684959412
C 104.276512146 116.335533142 108.778160095
C 100.885917664 112.624855042 107.926361084
C 102.273872375 115.819358826 110.067314148
C 101.464988708 114.704391479 109.644813538
C 100.286140442 114.044822693 109.793838501
C 99.964904785 112.993476868 108.912933350
C 105.560028076 115.432685852 106.830635071
C 105.202903748 116.041564941 107.728408813
C 102.591003418 116.908538818 110.877410889
N 106.106086731 116.405860901 107.176948547
C 103.180480957 115.477218628 108.944694519
C 102.112464905 113.313522339 107.834556580
C 103.746116638 117.704452515 110.680076599
16
name:0,n_samples:50,mol_size:16,random_seed:28282,imol:9
C 102.703750610 118.209587097 108.298049927
O 101.348213196 118.573204041 108.022460938
C 102.428543091 114.770851135 104.963554382
C 104.729515076 118.174316406 111.386230469
C 103.092536926 116.965713501 107.706596375
C 102.431777954 114.996681213 106.439964294
C 104.197395325 117.360511780 110.191040039
O 103.836517334 114.389686584 105.031784058
C 102.121917725 116.425643921 106.711624146
C 104.334724426 116.545730591 107.935691833
C 105.203201294 117.024955750 109.075492859
C 103.734298706 116.015220642 110.787300110
C 103.852828979 114.684112549 106.393424988
C 102.893173218 118.016639709 109.771591187
C 104.806343079 115.563507080 107.049957275
O 106.095474243 115.389907837 106.891067505
16
name:0,n_samples:50,mol_size:16,random_seed:28282,imol:10
C 105.499496460 115.522766113 108.695213318
O 101.881004333 115.938728333 108.412170410
C 104.389266968 117.577835083 109.079376221
C 102.735977173 113.626159668 106.642822266
C 103.656013489 114.553443909 107.627738953
C 105.245056152 114.356262207 107.887687683
O 104.785125732 118.079887390 110.373466492
O 105.629570007 118.750152588 107.465469360
C 105.740989685 117.709152222 108.294242859
C 106.186950684 115.221946716 110.061744690
C 101.414390564 113.130889893 107.091484070
C 103.185470581 115.658073425 108.393470764
N 104.157485962 116.186752319 109.134902954
O 103.203163147 113.023147583 105.505294800
O 106.213920593 116.402725220 107.853157043
C 107.796943665 114.924964905 110.122146606
16
name:0,n_samples:50,mol_size:16,random_seed:28282,imol:11
C 99.027160645 113.274795532 105.985374451
C 103.248657227 117.623382568 109.801597595
C 100.567764282 112.867790222 107.782142639
C 101.598991394 115.165740967 108.461006165
C 100.591529846 113.596572876 110.266899109
C 101.680145264 115.664169312 109.830566406
C 104.724975586 115.817916870 110.669616699
C 104.919525146 115.891166687 109.133621216
C 100.787689209 113.888305664 108.779129028
C 103.957099915 117.105934143 111.049858093
C 103.950111389 116.982475281 108.552330017
C 104.626762390 118.310676575 111.728683472
C 101.748313904 117.158439636 110.049392700
O 98.582885742 111.671920776 107.655082703
C 99.327682495 112.557632446 107.259750366
C 101.512870789 114.634666443 110.894004822
16
name:0,n_samples:50,mol_size:16,random_seed:28282,imol:12
C 102.886199951 117.371124268 108.306228638
C 101.943595886 113.433174133 106.614570618
C 104.836555481 116.618858337 110.133682251
C 105.144493103 116.750740051 111.566719055
C 104.669395447 116.936340332 106.674026489
C 102.227836609 116.094909668 107.981529236
O 102.968734741 112.777221680 106.692718506
C 105.861465454 117.223731995 109.228507996
C 100.559028625 112.937812805 106.995529175
C 104.057342529 117.983497620 107.584594727
O 100.448066711 112.629356384 108.232315063
C 101.927169800 114.788566589 106.109970093
C 105.266807556 118.319824219 108.488464355
C 104.424507141 115.462394714 107.026535034
C 102.937446594 115.454467773 106.817367554
C 102.661003113 115.597808838 105.411506653
16
name:0,n_samples:50,mol_size:16,random_seed:28282,imol:13
C 103.709915161 117.453010559 111.140159607
C 100.399238586 113.432022095 105.512748718
C 103.836174011 116.252365112 107.846954346
C 104.816268921 114.410919189 106.656616211
C 100.253387451 115.581924438 106.592391968
C 103.379013062 117.506484985 108.598075867
C 103.554740906 115.058494568 106.910118103
O 102.552902222 116.612640381 111.252929688
C 98.122360229 114.173530579 106.088829041
O 100.906501770 116.437820435 107.257247925
O 103.052856445 115.561798096 105.694725037
C 101.868270874 113.415756226 105.459396362
C 99.556198120 114.453857422 106.093322754
C 102.637008667 114.446273804 106.012443542
C 104.313667297 115.809791565 109.278625488
C 104.329528809 117.234222412 109.744674683
16
name:0,n_samples:50,mol_size:16,random_seed:28282,imol:14
C 103.323013306 116.635696411 106.198081970
O 100.714988708 113.773391724 106.481208801
O 102.962913513 114.256080627 103.925025940
C 101.938743591 115.315063477 107.737709045
C 104.583518982 116.797012329 109.995262146
C 103.112358093 115.422424316 108.690742493
O 104.213691711 116.620925903 111.255790710
C 104.009300232 117.235267639 107.457893372
O 105.762649536 116.620063782 109.668411255
C 103.489906311 116.854995728 108.859550476
C 101.297988892 114.783813477 105.609436035
C 101.714004517 114.037513733 104.358390808
O 102.978118896 114.827995300 109.932807922
C 102.493515015 115.355995178 106.335350037
O 100.154037476 114.392562866 108.735427856
C 101.196456909 113.959167480 107.817619324
16
name:0,n_samples:50,mol_size:16,random_seed:28282,imol:15
C 101.512863159 115.178382874 109.193168640
N 106.404907227 116.162429810 107.440216064
C 104.387458801 116.042770386 108.884689331
C 102.955177307 115.428070068 108.704582214
C 100.661079407 114.025108337 108.672843933
C 107.187408447 116.553359985 108.578407288
C 106.548339844 116.723907471 109.901542664
C 102.374191284 113.736808777 106.959663391
C 103.137641907 114.802391052 107.456039429
O 99.489936829 113.571128845 109.512351990
C 105.114753723 115.900985718 107.644821167
N 104.303680420 115.263595581 106.834655762
C 101.138763428 113.318923950 107.543685913
Cl 100.789100647 116.143905640 110.409866333
Cl 103.128662109 112.979400635 105.705619812
C 105.142967224 116.267669678 109.981254578
16
name:0,n_samples:50,mol_size:16,random_seed:28282,imol:16
O 104.278419495 116.310592651 110.252494812
C 103.300071716 113.801574707 106.241676331
C 106.218460083 115.896255493 107.432678223
C 105.689735413 114.689849854 106.634155273
C 103.642433167 115.970771790 107.448371887
C 104.148254395 114.725341797 106.681098938
C 98.955177307 114.618583679 107.179702759
C 100.782829285 113.107437134 107.814796448
C 99.828857422 114.787918091 109.463462830
C 101.011177063 112.647949219 106.396209717
C 106.469650269 117.071868896 109.933013916
C 99.918357849 114.090019226 108.148277283
N 105.082214355 116.686073303 109.466140747
C 104.940078735 116.709655762 107.922172546
C 102.307403564 113.070060730 105.925186157
O 106.468116760 113.935050964 106.156768799
16
name:0,n_samples:50,mol_size:16,random_seed:28282,imol:17
O 104.202041626 118.561340332 110.923629761
C 100.283424377 114.840713501 106.318321228
C 99.644866943 115.999572754 105.553665161
O 100.974189758 113.727012634 104.276557922
C 105.278900146 116.088829041 108.635490417
C 100.559364319 116.521888733 108.613388062
C 104.262283325 118.050735474 109.592041016
C 104.205978394 116.338844299 107.582397461
C 101.696388245 115.250892639 106.780647278
C 102.953254700 116.524703979 108.396888733
C 100.387962341 113.501144409 105.573150635
C 102.941070557 117.491127014 109.484298706
C 101.676887512 116.539505005 107.617111206
C 102.872383118 115.219894409 105.781677246
C 104.096496582 115.045570374 106.718666077
C 105.519493103 117.234519958 109.585235596
16
name:0,n_samples:50,mol_size:16,random_seed:28282,imol:18
C 104.329788208 115.806907654 108.242530823
C 102.090309143 118.453475952 109.459671021
C 101.536460876 114.183448792 108.009132385
C 102.128807068 117.260696411 108.494499207
C 106.607307434 114.734664917 107.582199097
C 102.176925659 114.138687134 105.585731506
C 102.567977905 114.460884094 106.963966370
O 100.939208984 116.558692932 108.816108704
C 105.820274353 115.854232788 108.324905396
C 103.847961426 114.869064331 107.216293335
C 103.567298889 116.690246582 110.420333862
C 102.965568542 118.041229248 110.584281921
C 103.122055054 118.951103210 111.685836792
O 106.561729431 116.305473328 109.316444397
C 103.329429626 116.484642029 108.953231812
C 104.895294189 116.515228271 111.151275635
16
name:0,n_samples:50,mol_size:16,random_seed:28282,imol:19
C 102.854423523 116.661384583 111.144683838
C 100.010314941 114.922653198 106.154609680
C 101.938774109 115.353675842 107.660362244
C 102.693679810 115.585525513 106.501091003
C 100.506568909 114.786552429 107.587905884
C 101.837120056 115.876213074 110.413726807
C 102.110069275 115.370521545 105.028884888
C 98.704269409 114.162239075 106.115264893
C 101.126258850 114.243499756 105.289131165
O 100.815345764 113.352157593 104.414329529
C 103.634025574 116.302543640 108.956031799
C 103.977157593 116.950157166 110.201004028
C 100.720901489 115.579025269 111.400070190
C 104.477539062 116.354370117 107.845085144
C 104.032096863 116.045753479 106.551269531
C 102.310264587 115.696701050 109.002052307
16
name:0,n_samples:50,mol_size:16,random_seed:28282,imol:20
N 105.097679138 114.309066772 105.659690857
C 106.519325256 115.623374939 109.315788269
C 102.220146179 115.264564514 106.714622498
O 109.315353394 115.781433105 111.132034302
C 104.573844910 115.121833801 106.503570557
C 105.385032654 115.922866821 108.373916626
C 107.238243103 116.695549011 110.094688416
F 102.150863647 114.355827332 105.731262207
C 107.248497009 115.053092957 112.162864685
O 106.326202393 117.747161865 110.403343201
C 106.297973633 114.514350891 106.266586304
C 100.918235779 115.803596497 107.210044861
C 104.012947083 116.143302917 108.357147217
C 105.705299377 115.313529968 107.143394470
C 103.489753723 115.548019409 107.226913452
C 107.952987671 116.067016602 111.305343628
16
name:0,n_samples:50,mol_size:16,random_seed:28282,imol:21
C 104.893554688 117.718017578 110.743972778
C 105.258811951 116.101959229 108.200820923
N 101.990417480 115.885543823 109.407447815
C 103.656097412 117.904350281 108.443367004
C 106.702720642 116.481269836 108.397003174
C 102.587341309 114.270523071 107.591804504
C 103.739479065 113.818931580 105.422813416
C 104.748603821 115.642120361 106.984100342
C 100.542587280 114.255874634 110.488182068
C 104.526542664 118.536338806 109.488983154
C 102.857757568 114.833015442 108.985000610
C 101.336250305 113.007865906 110.333862305
C 101.095207214 115.562461853 110.321243286
N 100.534851074 116.525100708 111.097282410
C 103.779327393 114.540283203 106.682601929
C 104.161026001 116.834091187 107.597808838
16
name:0,n_samples:50,mol_size:16,random_seed:28282,imol:22
C 104.436248779 115.310424805 106.099342346
C 100.508300781 115.411476135 105.820999146
C 102.994560242 117.187309265 109.891578674
C 99.558555603 113.439628601 108.384078979
S 101.732406616 116.168457031 104.905601501
C 102.058677673 113.375862122 105.733474731
N 102.736862183 116.144599915 107.481849670
C 101.788238525 115.125465393 107.814239502
N 105.514335632 115.956405640 106.936828613
C 105.141494751 116.611000061 108.230567932
C 103.072349548 116.072883606 106.052734375
C 99.765464783 114.883949280 108.987388611
C 101.412849426 114.498023987 106.615272522
C 101.154197693 115.393264771 109.013870239
C 103.694160461 116.728027344 108.437683105
C 101.566772461 116.532501221 110.091239929
16
name:0,n_samples:50,mol_size:16,random_seed:28282,imol:23
C 104.108749390 114.497016907 106.503196716
N 101.785430908 114.145286560 105.846267700
C 102.306098938 116.054672241 107.464782715
C 100.443092346 114.064872742 105.879890442
C 104.661170959 116.063697815 108.696830750
C 102.245841980 113.148406982 104.749443054
C 103.615226746 116.861053467 107.841964722
O 101.988677979 111.912719727 105.435096741
C 98.716285706 113.532684326 104.042427063
C 99.955490112 113.884017944 104.462814331
C 105.777030945 117.836563110 110.366233826
O 101.043746948 113.110229492 103.833145142
C 105.764755249 116.727859497 109.269515991
C 102.778190613 114.795310974 106.529579163
C 107.172622681 116.476486206 108.723991394
C 105.146636963 114.772903442 107.597465515
16
name:0,n_samples:50,mol_size:16,random_seed:28282,imol:24
C 101.653762817 115.862907410 108.132850647
C 102.197280884 113.959953308 106.546936035
C 105.358901978 115.638809204 108.023368835
C 106.706260681 115.393768311 108.290199280
C 106.201393127 117.040710449 109.684036255
C 103.533889771 114.266403198 106.617729187
C 101.291656494 114.762588501 107.290779114
C 105.912582397 114.232025146 106.218391418
O 106.274520874 117.929283142 110.558250427
N 103.705894470 117.148323059 109.100753784
C 103.013397217 116.196418762 108.277496338
C 101.909271240 112.861724854 105.620216370
C 104.009231567 115.349937439 107.532249451
C 104.552131653 113.564628601 105.850524902
N 107.170448303 116.230171204 109.245788574
C 105.057884216 116.741180420 108.976104736
16
name:0,n_samples:50,mol_size:16,random_seed:28282,imol:25
C 100.022575378 113.200683594 105.836540222
C 102.370979309 113.827629089 106.071769714
C 103.670715332 113.486984253 105.612045288
C 102.142158508 114.490516663 107.093269348
O 103.508094788 116.568260193 108.663825989
C 104.934852600 114.024543762 106.483726501
C 101.293060303 113.158439636 105.332000732
C 104.649894714 114.810317993 107.659576416
C 103.288642883 115.317955017 107.827934265
N 100.811271667 114.663078308 107.688461304
C 99.574813843 114.903152466 109.806007385
C 104.867080688 116.572586060 109.360763550
C 100.684539795 115.421813965 108.912895203
C 99.634620667 116.299766541 109.088546753
C 99.780494690 113.979949951 107.081390381
C 105.606109619 115.339965820 108.675910950
16
name:0,n_samples:50,mol_size:16,random_seed:28282,imol:26
C 102.692352295 115.521514893 105.886962891
S 106.086151123 114.993515015 107.108985901
S 106.362716675 115.934921265 110.116844177
O 106.439956665 117.315872192 110.626121521
C 101.902793884 114.617736816 106.647743225
C 102.395774841 116.051612854 104.537300110
Cl 100.393386841 114.335067749 106.131210327
C 103.773338318 114.191604614 108.149986267
C 103.936386108 115.930992126 106.432685852
O 105.246131897 115.223228455 110.663909912
C 106.239524841 116.003166199 108.508262634
O 105.731826782 117.267417908 108.217643738
C 104.516464233 115.028343201 107.312835693
C 102.417045593 113.980583191 107.805000305
O 104.411605835 117.150886536 106.112442017
O 107.640052795 115.179435730 110.517257690
16
name:0,n_samples:50,mol_size:16,random_seed:28282,imol:27
C 99.591354370 115.862495422 105.701293945
N 101.519355774 115.104728699 107.085929871
C 101.029731750 115.730987549 106.021720886
O 101.834388733 116.404884338 105.254127502
O 100.109771729 113.718582153 111.976028442
C 104.979713440 115.871322632 107.749504089
C 103.527809143 115.192085266 109.808555603
C 102.553794861 115.165763855 107.646865845
C 102.291755676 114.711799622 110.338096619
C 100.008232117 113.703063965 109.638145447
C 101.278610229 114.371612549 109.398368835
C 99.261596680 114.098785400 110.900405884
C 103.638809204 115.374763489 108.391204834
C 101.456039429 114.725563049 108.072593689
O 106.062339783 116.041793823 108.575683594
O 105.163764954 116.078468323 106.491767883
16
name:0,n_samples:50,mol_size:16,random_seed:28282,imol:28
C 104.757713318 117.573516846 108.687774658
C 102.668914795 115.218048096 105.038169861
C 99.846794128 113.484764099 109.497444153
C 103.270347595 117.073852539 108.396652222
C 105.179183960 117.614082336 110.132057190
O 99.222053528 113.398475647 110.678909302
N 101.612831116 114.118713379 107.397598267
C 102.532043457 116.027999878 109.071151733
C 101.050003052 114.388008118 109.700263977
C 101.662231445 114.949737549 108.531921387
O 102.783477783 117.123420715 107.038505554
C 103.349555969 116.174919128 105.979888916
S 106.351074219 116.935852051 109.047630310
C 101.580513000 114.861663818 110.958213806
C 102.533790588 115.938995361 110.526542664
O 99.451377869 113.142456055 108.454841614
16
name:0,n_samples:50,mol_size:16,random_seed:28282,imol:29
C 103.180030823 116.272399902 107.434333801
C 102.936210632 117.892288208 109.854537964
C 101.965278625 115.879043579 106.415023804
C 100.999717712 116.670730591 108.442489624
C 101.401473999 115.337280273 104.316062927
N 105.454605103 117.953468323 109.893821716
C 102.297515869 114.738410950 105.500205994
C 104.276802063 117.762733459 109.499938965
O 105.701210022 116.844924927 107.482398987
C 101.587951660 117.548995972 109.448211670
C 104.590850830 115.940208435 105.452789307
C 103.727836609 114.742401123 105.267997742
C 104.619606018 116.361755371 106.939041138
N 99.665893555 116.855667114 107.837966919
C 101.655830383 113.343597412 105.921989441
C 101.956024170 115.675636292 107.881286621
16
name:0,n_samples:50,mol_size:16,random_seed:28282,imol:30
C 104.640159607 114.196372986 105.877326965
C 102.547035217 115.199256897 108.832084656
C 102.902320862 116.274360657 109.577087402
C 104.205711365 116.644866943 109.344467163
C 101.095512390 113.327247620 107.373558044
C 100.175781250 114.025299072 109.649871826
C 106.039886475 115.435859680 107.914062500
C 107.144866943 116.789527893 109.722679138
C 102.257507324 113.465782166 106.355155945
F 104.514602661 113.448097229 104.813110352
C 104.717712402 115.756889343 108.369598389
C 101.447761536 113.966438293 108.767784119
C 103.436492920 114.463897705 106.641151428
S 106.155090332 114.430648804 106.504264832
C 107.266471863 115.691131592 108.772842407
C 103.596389771 115.010704041 107.908760071
16
name:0,n_samples:50,mol_size:16,random_seed:28282,imol:31
C 104.050476074 117.732559204 109.522079468
C 99.760726929 113.903434753 102.600448608
C 104.002410889 118.549331665 110.860015869
C 103.048515320 116.510848999 107.582633972
C 100.937728882 113.642189026 104.961761475
C 104.878410339 113.479934692 106.937507629
N 105.253814697 117.139060974 109.245697021
C 102.851669312 114.696411133 105.851837158
C 105.324455261 116.095008850 108.319038391
C 104.245262146 114.610412598 106.634963989
C 104.169990540 115.797508240 107.507644653
C 102.433197021 113.578086853 105.075202942
C 100.177001953 113.577003479 103.768287659
C 102.790527344 117.467498779 108.654212952
C 100.251098633 114.020545959 106.253303528
C 102.139114380 115.890441895 106.577026367
16
name:0,n_samples:50,mol_size:16,random_seed:28282,imol:32
C 101.819694519 114.506706238 110.124984741
C 103.080192566 116.129501343 108.866226196
C 102.937736511 116.218162537 107.435501099
C 103.031684875 117.226867676 109.954429626
C 104.593742371 118.874755859 108.794471741
C 103.712966919 114.890983582 105.836097717
O 105.321273804 113.828529358 106.514137268
C 103.094810486 117.373077393 106.808837891
C 103.334907532 118.645011902 109.542106628
C 102.794265747 114.859634399 109.320480347
C 101.640960693 115.508239746 110.967414856
C 101.914947510 116.938087463 110.860641479
C 104.153289795 113.375297546 105.878150940
C 102.659431458 114.995483398 106.723396301
O 104.170783997 113.209457397 104.522972107
C 105.108985901 115.203056335 106.305335999
16
name:0,n_samples:50,mol_size:16,random_seed:28282,imol:33
C 98.683807373 116.392189026 107.540199280
O 102.497848511 113.667007446 106.308456421
C 105.456535339 117.081947327 108.135444641
C 102.055580139 115.063690186 106.176643372
O 99.904815674 116.249565125 105.304901123
C 103.620140076 117.403831482 106.462066650
C 100.968177795 115.228126526 107.205253601
C 106.604637146 117.485954285 108.802841187
C 103.663742065 115.296257019 107.777023315
O 105.273094177 115.215431213 109.476905823
C 99.628143311 115.730216980 106.562423706
O 107.492820740 117.644645691 109.505699158
O 104.816696167 117.765113831 107.127822876
O 100.838233948 114.511192322 108.431838989
C 104.796844482 115.836318970 108.519798279
C 103.127616882 116.058982849 106.650001526
16
name:0,n_samples:50,mol_size:16,random_seed:28282,imol:34
C 103.927268982 117.436828613 108.488380432
O 104.458877563 118.293624878 109.378585815
C 104.465423584 117.282676697 107.199386597
O 105.448181152 118.119140625 106.811195374
C 101.077026367 114.397163391 109.929801941
C 101.409286499 114.648437500 111.238273621
C 103.911689758 113.330513000 105.404182434
C 102.817283630 115.535202026 106.737480164
C 101.443046570 114.500625610 108.536956787
O 102.250190735 114.623817444 105.980377197
C 102.367111206 115.630607605 108.087135315
C 102.844779968 114.990539551 111.566886902
C 103.952186584 116.285423279 106.362976074
C 102.762962341 113.288619995 106.300430298
C 102.833976746 116.663619995 108.907135010
O 100.573112488 114.566459656 112.281768799
16
name:0,n_samples:50,mol_size:16,random_seed:28282,imol:35
C 101.228065491 115.067268372 110.832611084
C 102.268951416 114.606346130 107.295593262
C 103.431213379 115.865333557 110.710243225
N 99.472854614 116.960472107 115.095794678
C 100.943901062 117.742050171 113.564178467
C 99.802162170 115.896224976 114.232421875
C 104.906585693 115.451034546 106.973152161
C 102.867385864 116.019210815 112.150512695
C 102.950164795 115.110786438 108.421440125
C 102.924957275 114.475990295 106.049690247
C 101.443000793 115.680419922 112.090011597
C 104.303131104 114.747520447 105.900093079
C 104.228576660 115.645545959 108.206542969
C 100.736968994 116.344039917 113.230453491
C 100.185874939 118.095008850 114.672386169
C 102.372398376 115.202529907 109.870361328
16
name:0,n_samples:50,mol_size:16,random_seed:28282,imol:36
C 99.996940613 115.808624268 108.175201416
C 103.398368835 114.558738708 105.805694580
N 104.253280640 117.255905151 108.944335938
N 99.795318604 116.665168762 109.205169678
C 102.152175903 114.375320435 105.790122986
C 104.609992981 114.848800659 105.542770386
C 101.097839355 115.027801514 106.251113892
N 102.681304932 118.370445251 110.724822998
O 103.287643433 119.055442810 111.670356750
C 102.386131287 116.243164062 108.035812378
N 103.816207886 116.433502197 107.926918030
C 103.206214905 117.647758484 109.677932739
C 101.215965271 115.699607849 107.551506042
C 102.108612061 116.964088440 109.114128113
C 100.885566711 117.292572021 109.741928101
C 101.245407104 118.220657349 110.810890198
16
name:0,n_samples:50,mol_size:16,random_seed:28282,imol:37
C 102.505157471 116.442153931 108.094047546
C 102.897773743 113.932357788 105.717063904
C 106.492874146 114.605079651 106.615470886
C 105.100555420 115.214187622 106.576507568
C 102.576293945 112.629989624 105.999908447
C 99.345420837 113.899261475 104.684280396
C 103.449104309 118.307884216 109.963973999
C 102.109016418 117.836883545 110.010841370
N 104.814819336 116.235305786 107.352409363
C 104.183891296 114.521995544 105.593063354
C 103.874458313 116.829231262 108.103294373
C 101.186164856 112.466362000 105.788780212
C 101.705482483 114.710533142 105.429588318
C 104.322998047 117.830055237 108.980216980
C 100.686424255 113.714767456 105.333740234
C 101.625587463 116.906974792 109.097816467
16
name:0,n_samples:50,mol_size:16,random_seed:28282,imol:38
C 106.451629639 115.515975952 106.632369995
C 103.307685852 117.185676575 108.269500732
S 106.704734802 115.974815369 108.179122925
O 104.978820801 118.262756348 110.557205200
C 102.234642029 115.402603149 109.546737671
F 104.504585266 119.592994690 112.394943237
C 104.050720215 116.341728210 107.423919678
C 104.126457214 118.671905518 111.523941040
C 103.863151550 114.503814697 105.658203125
C 102.103240967 117.743896484 110.445556641
C 102.846588135 118.019378662 111.732154846
C 105.537338257 116.622383118 107.106529236
C 101.582366943 115.116889954 110.841918945
C 102.914657593 118.552642822 107.655792236
O 103.372467041 115.316085815 106.776710510
N 102.750862122 116.810012817 109.498077393
16
name:0,n_samples:50,mol_size:16,random_seed:28282,imol:39
C 100.289031982 115.003074646 106.649734497
C 104.208343506 116.343879700 109.129119873
O 104.242858887 116.442848206 106.669410706
C 100.532142639 116.547599792 108.501838684
C 101.466224670 114.403305054 107.053939819
O 106.960411072 115.896141052 106.862503052
O 105.112319946 116.242561340 110.085998535
N 102.165206909 114.997528076 107.990501404
C 101.787307739 116.003906250 108.720764160
C 106.273132324 116.446449280 107.907249451
C 104.791893005 116.399337769 107.823188782
C 102.494415283 112.781341553 105.276901245
C 102.802429199 116.521636963 109.686782837
C 99.800781250 116.087776184 107.397552490
C 102.034141541 113.044120789 106.722846985
C 101.192352295 112.507926941 104.488876343
16
name:0,n_samples:50,mol_size:16,random_seed:28282,imol:40
C 101.994323730 113.451179504 106.243530273
N 102.189956665 113.838195801 107.914985657
O 104.689735413 116.049934387 111.361816406
O 99.521011353 112.950012207 108.745788574
C 104.417495728 113.992736816 106.827102661
O 100.066772461 112.600128174 110.966583252
S 100.048583984 113.571365356 109.790893555
C 106.432441711 115.190452576 108.131996155
C 106.289924622 115.697891235 109.614730835
C 102.621833801 114.332916260 110.418518066
C 103.510139465 114.264793396 108.117240906
C 103.901458740 114.476799011 109.501838684
C 101.607559204 114.009162903 109.331741333
C 103.496818542 113.362144470 105.755455017
C 104.858039856 115.415504456 110.130943298
O 99.528739929 114.693283081 110.230514526
16
name:0,n_samples:50,mol_size:16,random_seed:28282,imol:41
C 105.104598999 114.916519165 106.635910034
C 103.606613159 114.494323730 110.601783752
O 105.885185242 118.929962158 109.097381592
C 103.797027588 115.609260559 106.766929626
C 102.596054077 117.580070496 106.331748962
C 104.721427917 113.620040894 105.832832336
C 102.657714844 114.897331238 106.109756470
C 103.704139709 117.219657898 108.537849426
C 101.592460632 115.747299194 111.513786316
C 104.992401123 118.681961060 109.963844299
C 103.360931396 113.895706177 105.219062805
C 104.090057373 117.600013733 109.780357361
C 103.011718750 115.824897766 110.949249268
C 105.030616760 119.457229614 111.282226562
N 103.737640381 116.906867981 110.964050293
C 103.482833862 116.865303040 107.245941162
16
name:0,n_samples:50,mol_size:16,random_seed:28282,imol:42
C 101.146636963 117.627662659 109.134651184
C 104.518699646 115.446449280 109.284797668
C 104.914886475 114.753959656 108.026473999
O 106.308273315 116.966369629 108.593925476
C 101.103721619 115.792854309 107.514755249
C 102.032623291 116.789848328 108.215393066
C 99.693786621 115.637504578 108.018966675
N 105.645729065 113.803871155 107.272094727
C 103.939491272 115.538391113 107.326454163
C 99.043197632 114.237632751 107.919509888
C 105.691719055 116.389183044 109.724143982
O 103.198593140 115.141197205 109.595298767
C 101.493980408 117.508804321 110.643188477
O 103.857284546 116.068168640 106.121597290
C 99.919975281 113.259124756 107.203361511
C 103.405097961 116.168235779 108.631729126
16
name:0,n_samples:50,mol_size:16,random_seed:28282,imol:43
C 100.322845459 115.431434631 106.082038879
O 104.308731079 117.524101257 107.172096252
C 100.839805603 113.969711304 106.340255737
C 103.728012085 115.663383484 108.608612061
C 107.161003113 117.259941101 111.055244446
C 106.242210388 116.387145996 110.251548767
C 104.993492126 116.239479065 111.109085083
C 105.929199219 117.006507874 108.861473083
C 100.183624268 116.166984558 107.433319092
C 99.685073853 112.420501709 104.854377747
C 100.933883667 115.768730164 109.782600403
C 104.608917236 116.825912476 108.197944641
C 101.326766968 115.869377136 108.355155945
C 106.918365479 114.977188110 110.005584717
C 99.737892151 112.928749084 106.295372009
N 102.544113159 115.665344238 107.877464294
16
name:0,n_samples:50,mol_size:16,random_seed:28282,imol:44
C 102.619056702 114.396186829 105.475234985
O 100.304130554 111.558334351 106.682357788
C 99.830169678 112.739151001 107.294311523
C 105.701965332 115.753524780 111.228324890
C 100.935401917 113.816192627 107.407508850
C 105.882263184 116.544067383 109.896644592
O 103.840400696 116.933532715 108.620567322
O 101.696678162 113.455497742 105.160293579
C 103.889915466 114.510467529 107.420616150
C 104.060218811 114.670730591 105.883438110
C 103.280319214 113.118759155 107.423645020
O 101.243400574 113.890472412 108.820877075
C 105.136329651 116.268173218 108.537940979
C 102.098251343 113.350013733 106.466987610
C 105.074798584 114.725585938 108.363487244
O 105.883872986 116.755348206 107.342346191
16
name:0,n_samples:50,mol_size:16,random_seed:28282,imol:45
C 100.230979919 114.003082275 107.269584656
C 102.742095947 116.390350342 109.034713745
C 104.086189270 116.249114990 108.318931580
C 101.554985046 114.709960938 107.628997803
C 100.211814880 116.390693665 109.051574707
C 102.799736023 117.361778259 110.226097107
O 107.771011353 115.418220520 108.954818726
C 106.228523254 114.988166809 106.955886841
C 103.837440491 115.237739563 107.244216919
C 105.006584167 115.096351624 106.221321106
C 101.562889099 115.760406494 108.617424011
C 100.481987000 112.679107666 106.504852295
C 106.513397217 115.476127625 108.323455811
C 105.369308472 115.938369751 109.154121399
N 104.408058167 117.740447998 107.962844849
N 102.682037354 114.426826477 107.063240051
16
name:0,n_samples:50,mol_size:16,random_seed:28282,imol:46
O 98.752395630 116.701751709 109.252441406
C 101.281608582 116.897956848 109.683456421
C 103.663848877 113.962745667 106.077507019
C 100.726287842 115.772193909 107.780845642
C 103.439720154 116.282341003 108.696693420
C 105.484481812 116.783050537 110.267242432
C 104.569198608 115.489677429 107.977729797
C 104.092300415 117.113052368 109.718925476
C 101.990829468 115.966995239 108.768478394
O 100.741966248 117.156982422 110.943847656
C 105.935317993 115.125877380 108.632255554
C 106.512245178 116.351936340 109.291206360
C 104.638206482 115.177360535 106.547157288
C 101.174530029 114.214210510 107.436515808
C 100.073089600 116.642410278 108.905021667
C 102.182975769 114.241188049 106.193069458
16
name:0,n_samples:50,mol_size:16,random_seed:28282,imol:47
O 105.679313660 114.231483459 105.945114136
C 105.951179504 117.769699097 110.866775513
C 104.818695068 114.643150330 106.742439270
C 104.641471863 116.395088196 109.056457520
C 106.553466797 115.237236023 108.268829346
C 105.853713989 116.651138306 109.858924866
O 102.009872437 116.953216553 109.226943970
C 107.029998779 115.893409729 109.372741699
N 102.517463684 118.564041138 111.337173462
N 104.742904663 118.311141968 111.208290100
C 103.546020508 118.012390137 110.719917297
C 105.177345276 115.473823547 107.975204468
C 102.430839539 114.768623352 107.391357422
N 103.487609863 114.187629700 106.495094299
C 100.957969666 114.576576233 107.035545349
C 103.406600952 117.105842590 109.599838257
16
name:0,n_samples:50,mol_size:16,random_seed:28282,imol:48
C 101.643379211 114.063240051 107.810020447
S 106.212608337 117.103042603 111.624877930
C 106.558013916 116.488708496 110.059494019
N 106.207603455 115.526382446 107.817710876
C 104.057739258 114.874526978 108.015121460
C 101.719299316 112.282806396 105.016830444
N 104.273437500 115.745384216 109.083526611
C 103.239990234 112.645362854 104.990509033
C 103.006095886 114.106559753 107.332977295
C 105.260948181 114.802474976 107.286323547
C 103.681838989 113.536949158 106.171768188
O 105.431655884 117.571777344 108.447059631
S 100.335014343 112.841339111 108.046859741
N 101.154197693 115.149162292 108.366790771
C 105.584411621 116.335227966 108.878845215
C 105.027313232 113.988868713 106.244277954
16
name:0,n_samples:50,mol_size:16,random_seed:28282,imol:49
C 104.072250366 116.867874146 110.144813538
C 103.267494202 116.234329224 105.372528076
C 101.452743530 113.283645630 107.642501831
C 102.602752686 115.205146790 104.647926331
O 102.205902100 115.709510803 111.408195496
C 102.928916931 115.865669250 110.093360901
O 104.998725891 116.607162476 111.201660156
O 105.918243408 116.037704468 108.643074036
C 102.545478821 115.016639709 108.870353699
C 103.512809753 116.223976135 106.810867310
C 101.651924133 113.891242981 108.965194702
C 104.479606628 117.456390381 107.431251526
C 102.065292358 114.168014526 106.665618896
C 102.813972473 115.186393738 107.413665771
C 104.888038635 117.064300537 108.887947083
C 101.943969727 114.095230103 105.212280273
