
     RDKit          3D

 27 29  0  0  0  0  0  0  0  0999 V2000
   -8.6000    0.7710   24.2160 P   0  0  0  0  0  0  0  0  0  0  0  0
   -9.8110    1.5510   23.7420 O   0  0  0  0  0  0  0  0  0  0  0  0
   -8.2810   -0.4290   23.3610 O   0  0  0  0  0  0  0  0  0  0  0  0
   -7.4320    1.6760   24.4560 O   0  0  0  0  0  0  0  0  0  0  0  0
   -8.8400    0.4560   27.1010 P   0  0  0  0  0  0  0  0  0  0  0  0
   -7.4860   -0.0760   27.3830 O   0  0  0  0  0  0  0  0  0  0  0  0
   -9.2270    1.9030   27.3040 O   0  0  0  0  0  0  0  0  0  0  0  0
   -9.1210    0.0860   25.5620 O   0  0  0  0  0  0  0  0  0  0  0  0
   -9.8520   -0.5510   27.8150 O   0  0  0  0  0  0  0  0  0  0  0  0
  -11.2570   -0.2880   27.9230 C   0  0  0  0  0  0  0  0  0  0  0  0
  -11.6620   -0.6220   29.3560 C   0  0  1  0  0  0  0  0  0  0  0  0
  -11.5090   -2.0290   29.6170 O   0  0  0  0  0  0  0  0  0  0  0  0
  -10.8270    0.1320   30.4000 C   0  0  1  0  0  0  0  0  0  0  0  0
  -11.6500    0.4320   31.5400 O   0  0  0  0  0  0  0  0  0  0  0  0
   -9.7940   -0.8930   30.8070 C   0  0  1  0  0  0  0  0  0  0  0  0
   -9.2550   -0.7340   32.1360 O   0  0  0  0  0  0  0  0  0  0  0  0
  -10.5960   -2.1870   30.6770 C   0  0  2  0  0  0  0  0  0  0  0  0
   -9.6950   -3.3020   30.3470 N   0  0  0  0  0  0  0  0  0  0  0  0
   -8.9230   -3.3870   29.2420 C   0  0  0  0  0  0  0  0  0  0  0  0
   -8.2120   -4.5190   29.2750 N   0  0  0  0  0  0  0  0  0  0  0  0
   -8.4990   -5.1370   30.4500 C   0  0  2  0  0  0  0  0  0  0  0  0
   -8.1120   -6.3950   31.0780 C   0  0  0  0  0  0  0  0  0  0  0  0
   -7.2000   -7.1720   30.4520 N   0  0  0  0  0  0  0  0  0  0  0  0
   -8.6670   -6.7000   32.2760 N   0  0  0  0  0  0  0  0  0  0  0  0
   -9.5930   -5.9190   32.8650 C   0  0  0  0  0  0  0  0  0  0  0  0
  -10.0020   -4.7410   32.3490 N   0  0  0  0  0  0  0  0  0  0  0  0
   -9.4940   -4.3280   31.1520 C   0  0  0  0  0  0  0  0  0  0  0  0
  2  1  1  0
  3  1  1  0
  4  1  1  0
  6  5  1  0
  7  5  1  0
  8  5  1  0
  8  1  1  0
  9  5  1  0
 10  9  1  0
 11 10  1  6
 12 11  1  0
 13 11  1  0
 13 14  1  1
 15 13  1  0
 15 16  1  1
 17 12  1  0
 17 15  1  0
 17 18  1  6
 19 18  1  0
 20 19  1  0
 21 20  1  6
 22 21  1  0
 23 22  1  0
 24 22  1  0
 25 24  1  0
 26 25  1  0
 27 26  1  0
 27 21  1  0
 27 18  1  0
M  END
